<?xml version="1.0" encoding="UTF-8"?>
<routes xmlns:xsi="http://www.w3.org/2001/XMLSchema-instance" xsi:noNamespaceSchemaLocation="http://sumo.dlr.de/xsd/routes_file.xsd">
    <vType id="car" accel="2.6" decel="4.5" sigma="0.5" length="5" minGap="2.5" maxSpeed="15" guiShape="passenger"/>
    <vType id="bus" accel="1.2" decel="2.5" sigma="0.5" length="12" minGap="2.5" maxSpeed="12" guiShape="bus"/>
    <vType id="truck" accel="0.8" decel="2.0" sigma="0.5" length="7.5" minGap="3.0" maxSpeed="10" guiShape="truck"/>
    <vehicle id="veh0" type="car" depart="0.2" departSpeed="max">
        <route edges="24to23 23to33 33to32 32to22 22to12 12to02 02to01 01to00 13to14"/>
    </vehicle>
    <vehicle id="veh1" type="truck" depart="3.5" departSpeed="max">
        <route edges="44to43 43to42 42to41 41to31 31to30 30to20 20to21 21to22 34to44"/>
    </vehicle>
    <vehicle id="veh2" type="car" depart="9.0" departSpeed="max">
        <route edges="04to14 14to24 24to34 34to44 31to30"/>
    </vehicle>
    <vehicle id="veh3" type="car" depart="14.9" departSpeed="max">
        <route edges="03to13 13to23 23to24 24to14 14to13 13to23 23to22 14to04"/>
    </vehicle>
    <vehicle id="veh4" type="truck" depart="19.6" departSpeed="max">
        <route edges="03to13 13to23 23to24 24to34 34to33 33to43 43to42 01to00"/>
    </vehicle>
    <vehicle id="veh5" type="car" depart="19.8" departSpeed="max">
        <route edges="42to32 32to31 31to21 21to22 22to32 32to31 31to21 21to20 20to30 30to40 31to30"/>
    </vehicle>
    <vehicle id="veh6" type="car" depart="22.6" departSpeed="max">
        <route edges="04to14 14to13 13to03 03to02 02to01 01to11 01to00"/>
    </vehicle>
    <vehicle id="veh7" type="car" depart="26.3" departSpeed="max">
        <route edges="10to11 11to01 01to00 00to10 10to11 11to21 21to20 20to30 30to40 40to41 41to31 13to03"/>
    </vehicle>
    <vehicle id="veh8" type="truck" depart="27.1" departSpeed="max">
        <route edges="43to33 33to23 23to24 24to34 33to43"/>
    </vehicle>
    <vehicle id="veh9" type="car" depart="28.8" departSpeed="max">
        <route edges="20to21 21to22 22to32 32to33 33to43 43to42 42to41 14to04"/>
    </vehicle>
    <vehicle id="veh10" type="car" depart="31.9" departSpeed="max">
        <route edges="04to03 03to13 13to14 14to04 04to03 03to13 13to12 12to02 02to03 03to04 03to04"/>
    </vehicle>
    <vehicle id="veh11" type="car" depart="32.3" departSpeed="max">
        <route edges="04to14 14to24 24to34 34to44 44to43 43to42 31to30"/>
    </vehicle>
    <vehicle id="veh12" type="car" depart="34.9" departSpeed="max">
        <route edges="43to33 33to34 34to44 44to43 43to33 33to32 32to42 42to41 41to31 31to30 21to20"/>
    </vehicle>
    <vehicle id="veh13" type="car" depart="43.1" departSpeed="max">
        <route edges="40to41 41to31 31to32 32to42 30to40"/>
    </vehicle>
    <vehicle id="veh14" type="car" depart="58.4" departSpeed="max">
        <route edges="43to33 33to23 23to24 24to34 34to33 12to02"/>
    </vehicle>
    <vehicle id="veh15" type="car" depart="62.0" departSpeed="max">
        <route edges="00to10 10to20 20to21 21to22 22to32 32to31 32to42"/>
    </vehicle>
    <vehicle id="veh16" type="truck" depart="90.1" departSpeed="max">
        <route edges="04to14 14to13 13to12 12to11 11to10 10to00 00to01 01to02 13to03"/>
    </vehicle>
    <vehicle id="veh17" type="car" depart="93.6" departSpeed="max">
        <route edges="20to21 21to11 11to10 10to00 00to01 21to20"/>
    </vehicle>
    <vehicle id="veh18" type="car" depart="99.5" departSpeed="max">
        <route edges="44to43 43to33 33to23 23to13 13to12 12to02 13to03"/>
    </vehicle>
    <vehicle id="veh19" type="car" depart="100.4" departSpeed="max">
        <route edges="14to13 13to12 12to02 02to03 03to13 13to14 14to24 24to23 23to13 13to14 34to44"/>
    </vehicle>
    <vehicle id="veh20" type="car" depart="100.7" departSpeed="max">
        <route edges="00to10 10to11 11to21 21to20 20to10 10to11 11to21 21to22 22to12 11to01"/>
    </vehicle>
    <vehicle id="veh21" type="car" depart="108.3" departSpeed="max">
        <route edges="04to14 14to13 13to23 23to33 30to40"/>
    </vehicle>
    <vehicle id="veh22" type="car" depart="109.5" departSpeed="max">
        <route edges="01to11 11to10 10to00 00to01 01to11 11to10 33to34"/>
    </vehicle>
    <vehicle id="veh23" type="car" depart="111.1" departSpeed="max">
        <route edges="03to13 13to12 12to02 02to01 01to11 11to10"/>
    </vehicle>
    <vehicle id="veh24" type="car" depart="112.6" departSpeed="max">
        <route edges="24to23 23to13 13to12 12to11 11to21 30to40"/>
    </vehicle>
    <vehicle id="veh25" type="car" depart="117.9" departSpeed="max">
        <route edges="34to33 33to32 32to42 42to43 43to44 44to34 34to24 24to14 14to13 13to03 01to00"/>
    </vehicle>
    <vehicle id="veh26" type="car" depart="119.6" departSpeed="max">
        <route edges="14to13 13to12 12to02 02to03 03to13 31to41"/>
    </vehicle>
    <vehicle id="veh27" type="car" depart="122.3" departSpeed="max">
        <route edges="00to10 10to20 20to30 30to40 40to41 41to42 42to43 13to14"/>
    </vehicle>
    <vehicle id="veh28" type="bus" depart="125.6" departSpeed="max">
        <route edges="41to31 31to21 21to11 11to10 10to00 00to01 01to11 11to10 33to34"/>
    </vehicle>
    <vehicle id="veh29" type="car" depart="127.1" departSpeed="max">
        <route edges="43to33 33to23 23to22 22to12 12to13 13to03 03to02 02to01 01to00 00to10 10to11 12to02"/>
    </vehicle>
    <vehicle id="veh30" type="car" depart="130.3" departSpeed="max">
        <route edges="30to31 31to41 41to40 40to30 30to31 31to41 41to42 42to32 32to33 33to23 33to34"/>
    </vehicle>
    <vehicle id="veh31" type="car" depart="130.4" departSpeed="max">
        <route edges="40to30 30to31 31to41 41to40 40to30 30to31 31to32 32to33 33to23 23to24 24to34 03to04"/>
    </vehicle>
    <vehicle id="veh32" type="car" depart="132.4" departSpeed="max">
        <route edges="01to11 11to21 21to31 31to41 41to42 42to43 43to44 44to34 34to33 14to04"/>
    </vehicle>
    <vehicle id="veh33" type="car" depart="132.9" departSpeed="max">
        <route edges="43to33 33to32 32to42 42to41 41to31 33to43"/>
    </vehicle>
    <vehicle id="veh34" type="car" depart="134.9" departSpeed="max">
        <route edges="10to11 11to21 21to20 20to30 30to40 40to41 41to42 42to32 32to33 33to34 34to24 33to43"/>
    </vehicle>
    <vehicle id="veh35" type="car" depart="140.1" departSpeed="max">
        <route edges="20to21 21to11 11to10 10to00 00to01 01to11 11to12 12to22 22to32 13to03"/>
    </vehicle>
    <vehicle id="veh36" type="car" depart="147.0" departSpeed="max">
        <route edges="24to23 23to13 13to03 03to04 04to14 14to24 24to34 34to44 44to43 43to42 42to32 33to34"/>
    </vehicle>
    <vehicle id="veh37" type="bus" depart="148.3" departSpeed="max">
        <route edges="03to13 13to23 23to22 22to32 32to42 42to41 13to14"/>
    </vehicle>
    <vehicle id="veh38" type="truck" depart="150.0" departSpeed="max">
        <route edges="03to13 13to12 12to02 02to03 03to13 13to12 12to11 43to44"/>
    </vehicle>
    <vehicle id="veh39" type="bus" depart="153.2" departSpeed="max">
        <route edges="40to41 41to31 31to30 30to20 20to10 10to11 11to01 01to02 02to03 03to04 04to14 33to34"/>
    </vehicle>
    <vehicle id="veh40" type="car" depart="158.7" departSpeed="max">
        <route edges="40to30 30to20 20to21 21to11 11to12 13to14"/>
    </vehicle>
    <vehicle id="veh41" type="car" depart="161.9" departSpeed="max">
        <route edges="00to10 10to11 11to12 12to02 02to01 01to00 00to10 13to03"/>
    </vehicle>
    <vehicle id="veh42" type="car" depart="163.2" departSpeed="max">
        <route edges="40to41 41to42 42to32 32to22 22to21 41to40"/>
    </vehicle>
    <vehicle id="veh43" type="car" depart="163.6" departSpeed="max">
        <route edges="42to32 32to31 31to41 41to40 40to30 30to31 31to21 21to20 20to30 33to43"/>
    </vehicle>
    <vehicle id="veh44" type="car" depart="164.3" departSpeed="max">
        <route edges="44to43 43to33 33to23 23to13 13to03 03to04 04to14 41to40"/>
    </vehicle>
    <vehicle id="veh45" type="car" depart="172.6" departSpeed="max">
        <route edges="02to12 12to13 13to03 03to02 02to12 12to13 13to03 03to02 02to01 01to00 00to10 01to00"/>
    </vehicle>
    <vehicle id="veh46" type="car" depart="175.0" departSpeed="max">
        <route edges="10to11 11to12 12to13 13to23 23to22 22to12 12to13 13to23 23to22 22to21 21to20 33to34"/>
    </vehicle>
    <vehicle id="veh47" type="car" depart="191.7" departSpeed="max">
        <route edges="02to12 12to11 11to01 01to00 23to24"/>
    </vehicle>
    <vehicle id="veh48" type="car" depart="193.4" departSpeed="max">
        <route edges="30to31 31to41 41to40 40to30 30to20 01to00"/>
    </vehicle>
    <vehicle id="veh49" type="car" depart="194.6" departSpeed="max">
        <route edges="44to34 34to33 33to32 32to22 22to21 21to20 34to44"/>
    </vehicle>
    <vehicle id="veh50" type="car" depart="197.9" departSpeed="max">
        <route edges="34to33 33to23 23to22 22to12 12to13 13to03 03to04 11to01"/>
    </vehicle>
    <vehicle id="veh51" type="bus" depart="207.2" departSpeed="max">
        <route edges="30to31 31to21 21to11 11to12 12to22 22to32 32to31 31to41 41to42 32to42"/>
    </vehicle>
    <vehicle id="veh52" type="car" depart="209.0" departSpeed="max">
        <route edges="04to03 03to13 13to12 12to11 11to01 01to00 00to10 10to20 20to21 21to11 11to01"/>
    </vehicle>
    <vehicle id="veh53" type="car" depart="212.2" departSpeed="max">
        <route edges="44to34 34to24 24to14 14to04 31to41"/>
    </vehicle>
    <vehicle id="veh54" type="car" depart="217.9" departSpeed="max">
        <route edges="00to01 01to02 02to12 12to11 11to01 01to02 02to03 03to13 13to14 10to00"/>
    </vehicle>
    <vehicle id="veh55" type="bus" depart="218.6" departSpeed="max">
        <route edges="24to23 23to22 22to21 21to31 31to30 30to40 40to41 41to42 03to04"/>
    </vehicle>
    <vehicle id="veh56" type="car" depart="222.7" departSpeed="max">
        <route edges="14to13 13to03 03to02 02to01 01to00 00to10 10to20 20to21 21to31 11to01"/>
    </vehicle>
    <vehicle id="veh57" type="car" depart="224.9" departSpeed="max">
        <route edges="14to13 13to03 03to02 02to12 12to13 13to14 14to24 24to23 23to22 22to12 31to41"/>
    </vehicle>
    <vehicle id="veh58" type="car" depart="226.6" departSpeed="max">
        <route edges="14to13 13to12 12to22 22to21 21to20 20to10 10to00 00to01 34to44"/>
    </vehicle>
    <vehicle id="veh59" type="car" depart="227.5" departSpeed="max">
        <route edges="44to43 43to33 33to32 32to22 22to12 12to11 11to01 01to02 02to03 03to04 32to42"/>
    </vehicle>
    <vehicle id="veh60" type="car" depart="229.7" departSpeed="max">
        <route edges="04to14 14to13 13to23 23to24 24to14 03to04"/>
    </vehicle>
    <vehicle id="veh61" type="car" depart="230.8" departSpeed="max">
        <route edges="42to32 32to33 33to43 43to44 44to34 34to24 24to14 43to44"/>
    </vehicle>
    <vehicle id="veh62" type="car" depart="235.4" departSpeed="max">
        <route edges="01to11 11to12 12to22 22to23 23to33 33to43 01to00"/>
    </vehicle>
    <vehicle id="veh63" type="car" depart="235.5" departSpeed="max">
        <route edges="10to11 11to12 12to02 02to01 10to00"/>
    </vehicle>
    <vehicle id="veh64" type="car" depart="236.1" departSpeed="max">
        <route edges="00to10 10to20 20to30 30to40 33to43"/>
    </vehicle>
    <vehicle id="veh65" type="car" depart="242.7" departSpeed="max">
        <route edges="40to41 41to31 31to30 30to40 40to41 41to42 42to43 43to33 33to34 34to24 24to23 31to41"/>
    </vehicle>
    <vehicle id="veh66" type="truck" depart="243.8" departSpeed="max">
        <route edges="14to13 13to12 12to11 11to10 10to00 00to01 01to11 13to14"/>
    </vehicle>
    <vehicle id="veh67" type="truck" depart="244.8" departSpeed="max">
        <route edges="20to21 21to22 22to12 12to11 11to21 21to20 20to30 30to40 01to00"/>
    </vehicle>
    <vehicle id="veh68" type="car" depart="246.2" departSpeed="max">
        <route edges="14to13 13to12 12to22 22to23 23to33 33to32 10to00"/>
    </vehicle>
    <vehicle id="veh69" type="car" depart="247.7" departSpeed="max">
        <route edges="44to43 43to33 33to23 23to22 22to12 30to40"/>
    </vehicle>
    <vehicle id="veh70" type="car" depart="247.9" departSpeed="max">
        <route edges="41to31 31to32 32to22 22to23 12to02"/>
    </vehicle>
    <vehicle id="veh71" type="car" depart="250.2" departSpeed="max">
        <route edges="43to33 33to32 32to42 42to43 43to33 13to14"/>
    </vehicle>
    <vehicle id="veh72" type="bus" depart="259.8" departSpeed="max">
        <route edges="40to41 41to42 42to43 43to33 33to32 01to00"/>
    </vehicle>
    <vehicle id="veh73" type="car" depart="261.4" departSpeed="max">
        <route edges="03to13 13to12 12to22 22to23 23to33 33to43 33to43"/>
    </vehicle>
    <vehicle id="veh74" type="car" depart="264.5" departSpeed="max">
        <route edges="44to43 43to42 42to41 41to40 40to30 30to31 31to41 41to40 40to30 30to20 20to21 12to02"/>
    </vehicle>
    <vehicle id="veh75" type="car" depart="267.8" departSpeed="max">
        <route edges="41to31 31to21 21to11 11to10 21to20"/>
    </vehicle>
    <vehicle id="veh76" type="car" depart="270.2" departSpeed="max">
        <route edges="02to12 12to22 22to23 23to13 13to03 03to02 02to12 12to13 13to14 11to01"/>
    </vehicle>
    <vehicle id="veh77" type="car" depart="276.5" departSpeed="max">
        <route edges="10to11 11to21 21to31 31to41 41to40 40to30 33to34"/>
    </vehicle>
    <vehicle id="veh78" type="truck" depart="278.2" departSpeed="max">
        <route edges="43to33 33to23 23to24 24to34 34to33 33to43 43to42 42to32 11to10"/>
    </vehicle>
    <vehicle id="veh79" type="truck" depart="279.8" departSpeed="max">
        <route edges="20to21 21to11 11to01 01to00 00to10 10to20 20to21 21to20"/>
    </vehicle>
    <vehicle id="veh80" type="car" depart="279.8" departSpeed="max">
        <route edges="34to33 33to23 23to13 13to03 03to04 04to14 14to24 24to34 30to40"/>
    </vehicle>
    <vehicle id="veh81" type="car" depart="288.7" departSpeed="max">
        <route edges="04to03 03to13 13to12 12to02 12to02"/>
    </vehicle>
    <vehicle id="veh82" type="car" depart="292.4" departSpeed="max">
        <route edges="30to31 31to41 41to40 40to30 30to20 20to21 21to11 34to44"/>
    </vehicle>
    <vehicle id="veh83" type="car" depart="292.7" departSpeed="max">
        <route edges="42to32 32to22 22to23 23to33 33to43 43to42 33to34"/>
    </vehicle>
    <vehicle id="veh84" type="car" depart="292.8" departSpeed="max">
        <route edges="42to32 32to33 33to34 34to24 24to14 14to13 13to12 31to41"/>
    </vehicle>
    <vehicle id="veh85" type="car" depart="300.1" departSpeed="max">
        <route edges="04to03 03to02 02to01 01to00 00to10 10to11 11to12 12to02 10to00"/>
    </vehicle>
    <vehicle id="veh86" type="car" depart="301.3" departSpeed="max">
        <route edges="02to12 12to11 11to01 01to02 02to12 12to22 22to21 10to00"/>
    </vehicle>
    <vehicle id="veh87" type="car" depart="304.7" departSpeed="max">
        <route edges="30to31 31to32 32to42 42to43 43to44 44to34 03to04"/>
    </vehicle>
    <vehicle id="veh88" type="car" depart="308.2" departSpeed="max">
        <route edges="04to03 03to02 02to12 12to22 22to32 32to33 33to23 43to44"/>
    </vehicle>
    <vehicle id="veh89" type="car" depart="308.3" departSpeed="max">
        <route edges="01to11 11to10 10to00 00to01 12to02"/>
    </vehicle>
    <vehicle id="veh90" type="car" depart="308.6" departSpeed="max">
        <route edges="30to31 31to21 21to20 20to10 03to04"/>
    </vehicle>
    <vehicle id="veh91" type="car" depart="311.1" departSpeed="max">
        <route edges="34to33 33to43 43to44 44to34 34to24 01to00"/>
    </vehicle>
    <vehicle id="veh92" type="car" depart="311.2" departSpeed="max">
        <route edges="34to33 33to43 43to42 42to41 41to31 31to30 30to20 14to04"/>
    </vehicle>
    <vehicle id="veh93" type="car" depart="312.7" departSpeed="max">
        <route edges="00to01 01to11 11to12 12to02 10to00"/>
    </vehicle>
    <vehicle id="veh94" type="car" depart="315.3" departSpeed="max">
        <route edges="04to14 14to24 24to34 34to44 44to43 43to33 33to34 01to00"/>
    </vehicle>
    <vehicle id="veh95" type="car" depart="317.3" departSpeed="max">
        <route edges="02to12 12to13 13to23 23to33 33to43 43to42 42to32 32to31 31to30 30to40"/>
    </vehicle>
    <vehicle id="veh96" type="car" depart="319.1" departSpeed="max">
        <route edges="40to30 30to31 31to32 32to42 42to41 41to31 31to32 32to22 22to23 23to33 23to24"/>
    </vehicle>
    <vehicle id="veh97" type="car" depart="323.9" departSpeed="max">
        <route edges="40to30 30to20 20to21 21to31 31to30 30to20 43to44"/>
    </vehicle>
    <vehicle id="veh98" type="car" depart="324.6" departSpeed="max">
        <route edges="42to32 32to33 33to43 43to44 44to34 34to24 24to14 14to04 04to03 03to02 02to01 14to04"/>
    </vehicle>
    <vehicle id="veh99" type="truck" depart="333.2" departSpeed="max">
        <route edges="00to01 01to11 11to10 10to20 20to21 23to24"/>
    </vehicle>
    <vehicle id="veh100" type="car" depart="334.3" departSpeed="max">
        <route edges="03to13 13to14 14to04 04to03 03to13 13to12 12to22 22to32 32to42 42to43 43to44 30to40"/>
    </vehicle>
    <vehicle id="veh101" type="bus" depart="337.1" departSpeed="max">
        <route edges="00to01 01to02 02to03 03to04 31to41"/>
    </vehicle>
    <vehicle id="veh102" type="car" depart="340.7" departSpeed="max">
        <route edges="30to31 31to32 32to22 22to12 12to11 11to01 01to00 00to10 32to42"/>
    </vehicle>
    <vehicle id="veh103" type="car" depart="343.3" departSpeed="max">
        <route edges="10to11 11to01 01to00 00to10 10to20 20to21 21to11 11to10 10to00 13to14"/>
    </vehicle>
    <vehicle id="veh104" type="car" depart="344.5" departSpeed="max">
        <route edges="34to33 33to43 43to44 44to34 34to24 24to23 23to22 22to32 32to42 03to04"/>
    </vehicle>
    <vehicle id="veh105" type="car" depart="344.7" departSpeed="max">
        <route edges="00to10 10to11 11to21 21to20 20to30 30to40 40to41 41to31 31to32 11to10"/>
    </vehicle>
    <vehicle id="veh106" type="car" depart="350.5" departSpeed="max">
        <route edges="43to33 33to32 32to22 22to21 21to31 31to41 41to40 13to03"/>
    </vehicle>
    <vehicle id="veh107" type="bus" depart="356.6" departSpeed="max">
        <route edges="43to33 33to32 32to31 31to21 21to20 20to10 10to11 11to12 12to13 33to43"/>
    </vehicle>
    <vehicle id="veh108" type="car" depart="358.7" departSpeed="max">
        <route edges="00to10 10to11 11to01 01to00 00to10 10to11 11to21 21to20 31to30"/>
    </vehicle>
    <vehicle id="veh109" type="truck" depart="367.1" departSpeed="max">
        <route edges="42to32 32to31 31to30 30to20 20to10 10to00 00to01 01to11 11to10 10to20 23to24"/>
    </vehicle>
    <vehicle id="veh110" type="car" depart="369.1" departSpeed="max">
        <route edges="41to31 31to30 30to40 40to41 41to31 31to32 32to22 22to12 12to13 13to03 21to20"/>
    </vehicle>
    <vehicle id="veh111" type="car" depart="369.3" departSpeed="max">
        <route edges="44to34 34to33 33to32 32to31 33to34"/>
    </vehicle>
    <vehicle id="veh112" type="bus" depart="376.3" departSpeed="max">
        <route edges="41to31 31to21 21to22 22to23 23to33 33to34 34to44 14to04"/>
    </vehicle>
    <vehicle id="veh113" type="bus" depart="376.5" departSpeed="max">
        <route edges="44to34 34to33 33to32 32to22 22to21 21to31 12to02"/>
    </vehicle>
    <vehicle id="veh114" type="car" depart="380.9" departSpeed="max">
        <route edges="02to12 12to13 13to03 03to04 04to14 14to24 24to23 23to22 22to21 21to31 13to14"/>
    </vehicle>
    <vehicle id="veh115" type="car" depart="388.3" departSpeed="max">
        <route edges="42to32 32to22 22to21 21to31 31to32 32to42 42to41 41to31 31to30 30to20 13to03"/>
    </vehicle>
    <vehicle id="veh116" type="car" depart="394.4" departSpeed="max">
        <route edges="42to32 32to31 31to30 30to40 40to41 41to31 31to21 21to22 22to23 23to24 24to34 33to43"/>
    </vehicle>
    <vehicle id="veh117" type="car" depart="395.3" departSpeed="max">
        <route edges="34to33 33to32 32to22 22to12 12to11 10to00"/>
    </vehicle>
    <vehicle id="veh118" type="car" depart="409.4" departSpeed="max">
        <route edges="20to21 21to22 22to23 23to33 33to43 43to44 44to34 34to33 21to20"/>
    </vehicle>
    <vehicle id="veh119" type="truck" depart="410.5" departSpeed="max">
        <route edges="43to33 33to34 34to24 24to23 23to22 22to32 32to42 42to43 43to44 44to34 34to24 31to41"/>
    </vehicle>
    <vehicle id="veh120" type="truck" depart="416.3" departSpeed="max">
        <route edges="10to11 11to01 01to00 00to10 10to11 30to40"/>
    </vehicle>
    <vehicle id="veh121" type="car" depart="416.6" departSpeed="max">
        <route edges="14to13 13to03 03to04 04to14 14to13 23to24"/>
    </vehicle>
    <vehicle id="veh122" type="car" depart="420.5" departSpeed="max">
        <route edges="20to21 21to31 31to32 32to33 33to23 34to44"/>
    </vehicle>
    <vehicle id="veh123" type="car" depart="430.0" departSpeed="max">
        <route edges="20to21 21to11 11to12 12to22 13to14"/>
    </vehicle>
    <vehicle id="veh124" type="car" depart="430.2" departSpeed="max">
        <route edges="01to11 11to12 12to13 13to14 14to24 21to20"/>
    </vehicle>
    <vehicle id="veh125" type="car" depart="431.9" departSpeed="max">
        <route edges="00to10 10to20 20to30 30to40 40to41 41to31 43to44"/>
    </vehicle>
    <vehicle id="veh126" type="car" depart="433.5" departSpeed="max">
        <route edges="02to12 12to22 22to21 21to20 20to10 10to00 00to01 01to02 02to12 14to04"/>
    </vehicle>
    <vehicle id="veh127" type="car" depart="441.8" departSpeed="max">
        <route edges="00to10 10to20 20to21 21to22 22to32 32to33 33to34 34to44 44to43 33to34"/>
    </vehicle>
    <vehicle id="veh128" type="car" depart="444.3" departSpeed="max">
        <route edges="04to03 03to13 13to14 14to04 04to03 03to02 02to01 01to11 11to12 03to04"/>
    </vehicle>
    <vehicle id="veh129" type="car" depart="449.0" departSpeed="max">
        <route edges="30to31 31to21 21to11 11to01 01to02 02to12 12to22 22to32 32to33 33to23 31to30"/>
    </vehicle>
    <vehicle id="veh130" type="car" depart="452.8" departSpeed="max">
        <route edges="00to01 01to11 11to12 12to13 13to23 23to24 24to14 14to04 04to03 03to02 31to30"/>
    </vehicle>
    <vehicle id="veh131" type="truck" depart="454.8" departSpeed="max">
        <route edges="10to11 11to12 12to22 22to21 03to04"/>
    </vehicle>
    <vehicle id="veh132" type="bus" depart="455.6" departSpeed="max">
        <route edges="04to14 14to13 13to23 23to33 33to32 43to44"/>
    </vehicle>
    <vehicle id="veh133" type="car" depart="457.3" departSpeed="max">
        <route edges="24to23 23to33 33to32 32to42 42to43 43to44 44to34 34to33 33to32 32to42 03to04"/>
    </vehicle>
    <vehicle id="veh134" type="car" depart="459.1" departSpeed="max">
        <route edges="43to33 33to32 32to22 22to12 12to13 13to14 14to24 24to34 34to33 33to23 23to22 43to44"/>
    </vehicle>
    <vehicle id="veh135" type="car" depart="464.2" departSpeed="max">
        <route edges="01to11 11to21 21to31 31to41 41to40 40to30 30to31 31to30"/>
    </vehicle>
    <vehicle id="veh136" type="car" depart="465.3" departSpeed="max">
        <route edges="34to33 33to43 43to42 42to32 32to33 33to34 13to14"/>
    </vehicle>
    <vehicle id="veh137" type="car" depart="482.9" departSpeed="max">
        <route edges="03to13 13to23 23to22 22to32 32to33 33to34 13to14"/>
    </vehicle>
    <vehicle id="veh138" type="car" depart="489.6" departSpeed="max">
        <route edges="34to33 33to43 43to44 44to34 34to24 24to14 14to13 13to12 12to02 02to01 32to42"/>
    </vehicle>
    <vehicle id="veh139" type="car" depart="494.2" departSpeed="max">
        <route edges="01to11 11to21 21to22 22to23 23to33 33to32 32to22 22to12 12to13 13to03 33to43"/>
    </vehicle>
    <vehicle id="veh140" type="car" depart="503.2" departSpeed="max">
        <route edges="00to10 10to11 11to01 01to02 02to12 12to13 13to23 23to33 33to32 32to22 22to23 11to10"/>
    </vehicle>
    <vehicle id="veh141" type="car" depart="503.5" departSpeed="max">
        <route edges="42to32 32to31 31to41 41to42 42to32 32to33 33to23 21to20"/>
    </vehicle>
    <vehicle id="veh142" type="car" depart="503.8" departSpeed="max">
        <route edges="34to33 33to23 23to13 13to12 12to11 11to01"/>
    </vehicle>
    <vehicle id="veh143" type="truck" depart="505.3" departSpeed="max">
        <route edges="40to41 41to42 42to43 43to33 33to32 32to42 42to41 41to40 40to30 13to03"/>
    </vehicle>
    <vehicle id="veh144" type="car" depart="507.8" departSpeed="max">
        <route edges="44to43 43to42 42to41 41to31 31to21 21to20 20to30 30to31 14to04"/>
    </vehicle>
    <vehicle id="veh145" type="car" depart="509.5" departSpeed="max">
        <route edges="00to10 10to11 11to01 01to02 33to43"/>
    </vehicle>
    <vehicle id="veh146" type="car" depart="510.7" departSpeed="max">
        <route edges="04to14 14to24 24to34 34to33 33to23 23to13 13to12 12to11 11to01 01to00 00to10 14to04"/>
    </vehicle>
    <vehicle id="veh147" type="car" depart="516.5" departSpeed="max">
        <route edges="30to31 31to32 32to33 33to43 43to42 42to41 41to31 31to21 21to22 22to12 12to13 12to02"/>
    </vehicle>
    <vehicle id="veh148" type="car" depart="517.4" departSpeed="max">
        <route edges="00to01 01to11 11to10 10to20 20to21 21to22 22to32 32to31 31to30 10to00"/>
    </vehicle>
    <vehicle id="veh149" type="car" depart="522.4" departSpeed="max">
        <route edges="14to13 13to03 03to04 04to14 14to24 24to23 23to33 33to32 32to31 33to43"/>
    </vehicle>
    <vehicle id="veh150" type="car" depart="523.6" departSpeed="max">
        <route edges="30to31 31to21 21to22 22to12 12to11 11to01 01to00"/>
    </vehicle>
    <vehicle id="veh151" type="car" depart="527.0" departSpeed="max">
        <route edges="14to13 13to12 12to22 22to21 21to20 20to10 10to11 11to12 12to22 22to23 14to04"/>
    </vehicle>
    <vehicle id="veh152" type="bus" depart="533.9" departSpeed="max">
        <route edges="00to10 10to20 20to30 30to40 40to41 41to42 42to43 43to44 11to01"/>
    </vehicle>
    <vehicle id="veh153" type="car" depart="534.3" departSpeed="max">
        <route edges="43to33 33to32 32to22 22to21 21to20 20to30 30to31 31to21 21to22 22to12 32to42"/>
    </vehicle>
    <vehicle id="veh154" type="car" depart="538.4" departSpeed="max">
        <route edges="14to13 13to03 03to04 04to14 14to24 32to42"/>
    </vehicle>
    <vehicle id="veh155" type="car" depart="540.6" departSpeed="max">
        <route edges="14to13 13to23 23to22 22to21 21to11 11to10 10to00 00to01 13to03"/>
    </vehicle>
    <vehicle id="veh156" type="car" depart="542.3" departSpeed="max">
        <route edges="04to14 14to24 24to23 23to22 22to32 32to33 33to43 43to42 42to32 23to24"/>
    </vehicle>
    <vehicle id="veh157" type="car" depart="547.3" departSpeed="max">
        <route edges="44to34 34to33 33to32 32to22 22to23 23to33 33to34 34to24 24to23 23to33 12to02"/>
    </vehicle>
    <vehicle id="veh158" type="car" depart="548.0" departSpeed="max">
        <route edges="04to14 14to24 24to34 34to44 41to40"/>
    </vehicle>
    <vehicle id="veh159" type="car" depart="552.5" departSpeed="max">
        <route edges="03to13 13to12 12to02 02to01 01to00 33to34"/>
    </vehicle>
    <vehicle id="veh160" type="car" depart="554.2" departSpeed="max">
        <route edges="00to10 10to20 20to30 30to31 31to32 32to33 33to34 34to24 12to02"/>
    </vehicle>
    <vehicle id="veh161" type="truck" depart="558.1" departSpeed="max">
        <route edges="40to30 30to20 20to10 10to00 00to01 01to11 11to12 12to13 13to23 23to33 11to10"/>
    </vehicle>
    <vehicle id="veh162" type="bus" depart="558.2" departSpeed="max">
        <route edges="04to03 03to02 02to12 12to13 10to00"/>
    </vehicle>
    <vehicle id="veh163" type="car" depart="567.9" departSpeed="max">
        <route edges="00to10 10to11 11to12 12to22 22to21 21to31 31to32 32to22 13to03"/>
    </vehicle>
    <vehicle id="veh164" type="car" depart="568.1" departSpeed="max">
        <route edges="44to34 34to24 24to14 14to13 13to23 23to22 22to12 12to11 12to02"/>
    </vehicle>
    <vehicle id="veh165" type="car" depart="570.2" departSpeed="max">
        <route edges="44to34 34to24 24to14 14to04 04to03 03to02 02to12 11to10"/>
    </vehicle>
    <vehicle id="veh166" type="bus" depart="573.1" departSpeed="max">
        <route edges="30to31 31to32 32to33 33to34 34to44 44to43 43to42 42to32 32to31 31to30 30to20 34to44"/>
    </vehicle>
    <vehicle id="veh167" type="car" depart="575.6" departSpeed="max">
        <route edges="44to43 43to42 42to32 32to31 31to30 30to40 40to41 41to42 42to32 33to34"/>
    </vehicle>
    <vehicle id="veh168" type="car" depart="578.3" departSpeed="max">
        <route edges="44to34 34to33 33to32 32to22 22to21 32to42"/>
    </vehicle>
    <vehicle id="veh169" type="truck" depart="582.1" departSpeed="max">
        <route edges="40to41 41to31 31to32 32to33 33to43 43to42 42to41 41to31 31to30 30to20 20to21 13to03"/>
    </vehicle>
    <vehicle id="veh170" type="car" depart="585.0" departSpeed="max">
        <route edges="02to12 12to22 22to23 23to13 13to03 03to02 02to01 01to00"/>
    </vehicle>
    <vehicle id="veh171" type="car" depart="585.3" departSpeed="max">
        <route edges="44to43 43to42 42to41 41to31 11to01"/>
    </vehicle>
    <vehicle id="veh172" type="car" depart="589.0" departSpeed="max">
        <route edges="40to41 41to42 42to43 43to33 33to34 34to44 44to43 43to33 33to34 03to04"/>
    </vehicle>
    <vehicle id="veh173" type="car" depart="595.4" departSpeed="max">
        <route edges="40to30 30to20 20to21 21to11 11to10 10to20 20to21 21to31 33to34"/>
    </vehicle>
    <vehicle id="veh174" type="car" depart="597.1" departSpeed="max">
        <route edges="01to11 11to12 12to13 13to23 23to24 33to43"/>