<?xml version="1.0" encoding="UTF-8"?>

<!-- generated on 2025-04-04 19:09:05 by Eclipse SUMO netconvert Version v1_22_0+0847-70147e1e8ab
<netconvertConfiguration xmlns:xsi="http://www.w3.org/2001/XMLSchema-instance" xsi:noNamespaceSchemaLocation="http://sumo.dlr.de/xsd/netconvertConfiguration.xsd">

    <input>
        <osm-files value="traffic_data_8_938Fri/city.osm"/>
    </input>

    <output>
        <output-file value="traffic_data_8_938Fri/baseline_sumo_run/baseline.net.xml"/>
    </output>

    <projection>
        <proj.utm value="true"/>
    </projection>

    <processing>
        <geometry.remove value="true"/>
        <roundabouts.guess value="true"/>
    </processing>

    <tls_building>
        <tls.guess value="true"/>
        <tls.join value="true"/>
        <tls.default-type value="actuated"/>
    </tls_building>

    <ramp_guessing>
        <ramps.guess value="true"/>
    </ramp_guessing>

    <junctions>
        <no-internal-links value="false"/>
        <no-turnarounds value="true"/>
        <junctions.join value="true"/>
    </junctions>

    <report>
        <verbose value="true"/>
    </report>

</netconvertConfiguration>
-->

<net version="1.20" junctionCornerDetail="5" limitTurnSpeed="5.50" xmlns:xsi="http://www.w3.org/2001/XMLSchema-instance" xsi:noNamespaceSchemaLocation="http://sumo.dlr.de/xsd/net_file.xsd">

    <location netOffset="-581623.16,-4507320.99" convBoundary="0.00,0.00,6335.58,5270.87" origBoundary="-74.033237,40.712365,-73.958527,40.759653" projParameter="+proj=utm +zone=18 +ellps=WGS84 +datum=WGS84 +units=m +no_defs"/>

    <type id="highway.living_street" priority="2" numLanes="1" speed="2.78" disallow="tram rail_urban rail rail_electric rail_fast ship container cable_car subway aircraft wheelchair scooter drone" oneway="0"/>
    <type id="highway.motorway_link" priority="9" numLanes="1" speed="22.22" allow="private emergency authority army vip passenger hov taxi bus coach delivery truck trailer motorcycle evehicle custom1 custom2" oneway="1"/>
    <type id="highway.pedestrian" priority="1" numLanes="1" speed="2.78" allow="pedestrian" oneway="1" width="2.00"/>
    <type id="highway.primary" priority="12" numLanes="2" speed="27.78" disallow="tram rail_urban rail rail_electric rail_fast ship container cable_car subway aircraft wheelchair scooter drone" oneway="0"/>
    <type id="highway.primary_link" priority="7" numLanes="1" speed="22.22" disallow="tram rail_urban rail rail_electric rail_fast ship container cable_car subway aircraft wheelchair scooter drone" oneway="0"/>
    <type id="highway.residential" priority="3" numLanes="1" speed="13.89" disallow="tram rail_urban rail rail_electric rail_fast ship container cable_car subway aircraft wheelchair scooter drone" oneway="0"/>
    <type id="highway.secondary" priority="11" numLanes="1" speed="27.78" disallow="tram rail_urban rail rail_electric rail_fast ship container cable_car subway aircraft wheelchair scooter drone" oneway="0"/>
    <type id="highway.service" priority="1" numLanes="1" speed="5.56" allow="pedestrian delivery bicycle" oneway="0"/>
    <type id="highway.tertiary" priority="10" numLanes="1" speed="22.22" disallow="tram rail_urban rail rail_electric rail_fast ship container cable_car subway aircraft wheelchair scooter drone" oneway="0"/>
    <type id="highway.trunk" priority="13" numLanes="2" speed="27.78" disallow="pedestrian bicycle tram rail_urban rail rail_electric rail_fast ship container cable_car subway aircraft wheelchair scooter drone" oneway="0"/>
    <type id="highway.trunk_link" priority="8" numLanes="1" speed="22.22" disallow="pedestrian bicycle tram rail_urban rail rail_electric rail_fast ship container cable_car subway aircraft wheelchair scooter drone" oneway="0"/>
    <type id="highway.unclassified" priority="4" numLanes="1" speed="13.89" disallow="tram rail_urban rail rail_electric rail_fast ship container cable_car subway aircraft wheelchair scooter drone" oneway="0"/>

    <edge id=":103862737_0" function="internal">
        <lane id=":103862737_0_0" index="0" disallow="tram rail_urban rail rail_electric rail_fast ship container cable_car subway aircraft wheelchair scooter drone" speed="8.03" length="14.69" shape="267.87,2595.44 267.18,2590.21 267.51,2586.33 268.86,2583.81 271.25,2582.64"/>
        <lane id=":103862737_0_1" index="1" disallow="tram rail_urban rail rail_electric rail_fast ship container cable_car subway aircraft wheelchair scooter drone" speed="7.26" length="11.79" shape="267.87,2595.44 267.45,2591.58 267.96,2588.69 269.40,2586.76 271.78,2585.80"/>
        <lane id=":103862737_0_2" index="2" disallow="tram rail_urban rail rail_electric rail_fast ship container cable_car subway aircraft wheelchair scooter drone" speed="6.43" length="9.03" shape="267.87,2595.44 267.72,2592.95 268.42,2591.04 269.95,2589.71 272.31,2588.95"/>
    </edge>
    <edge id=":103865980_0" function="internal">
        <lane id=":103865980_0_0" index="0" disallow="tram rail_urban rail rail_electric rail_fast ship container cable_car subway aircraft wheelchair scooter drone" speed="6.07" length="7.77" shape="474.34,3126.07 474.26,3127.49 473.32,3128.70 471.53,3129.69 468.88,3130.48"/>
    </edge>
    <edge id=":103865982_0" function="internal">
        <lane id=":103865982_0_0" index="0" disallow="tram rail_urban rail rail_electric rail_fast ship container cable_car subway aircraft wheelchair scooter drone" speed="8.94" length="14.40" shape="394.84,3146.80 380.78,3149.92"/>
    </edge>
    <edge id=":103865982_1" function="internal">
        <lane id=":103865982_1_0" index="0" disallow="tram rail_urban rail rail_electric rail_fast ship container cable_car subway aircraft wheelchair scooter drone" speed="7.30" length="11.75" shape="394.84,3146.80 391.00,3147.29 388.09,3146.84 386.11,3145.47 385.07,3143.16"/>
        <lane id=":103865982_1_1" index="1" disallow="tram rail_urban rail rail_electric rail_fast ship container cable_car subway aircraft wheelchair scooter drone" speed="6.48" length="9.03" shape="394.84,3146.80 392.36,3146.99 390.43,3146.33 389.05,3144.84 388.20,3142.51"/>
    </edge>
    <edge id=":103865986_0" function="internal">
        <lane id=":103865986_0_0" index="0" disallow="tram rail_urban rail rail_electric rail_fast ship container cable_car subway aircraft wheelchair scooter drone" speed="6.53" length="9.04" shape="295.76,3174.56 294.88,3172.24 293.48,3170.75 291.55,3170.08 289.08,3170.25"/>
    </edge>
    <edge id=":103865986_1" function="internal">
        <lane id=":103865986_1_0" index="0" disallow="tram rail_urban rail rail_electric rail_fast ship container cable_car subway aircraft wheelchair scooter drone" speed="6.51" length="9.02" shape="303.13,3167.20 300.82,3168.07 299.34,3169.47 298.69,3171.41 298.88,3173.87"/>
    </edge>
    <edge id=":103865986_2" function="internal">
        <lane id=":103865986_2_0" index="0" disallow="tram rail_urban rail rail_electric rail_fast ship container cable_car subway aircraft wheelchair scooter drone" speed="8.94" length="14.38" shape="303.13,3167.20 289.08,3170.25"/>
    </edge>
    <edge id=":103866348_0" function="internal">
        <lane id=":103866348_0_0" index="0" disallow="tram rail_urban rail rail_electric rail_fast ship container cable_car subway aircraft wheelchair scooter drone" speed="6.50" length="9.05" shape="444.03,3832.08 444.91,3834.40 446.32,3835.88 448.26,3836.52 450.73,3836.31"/>
    </edge>
    <edge id=":103866348_1" function="internal">
        <lane id=":103866348_1_0" index="0" disallow="tram rail_urban rail rail_electric rail_fast ship container cable_car subway aircraft wheelchair scooter drone" speed="6.49" length="9.03" shape="436.66,3839.45 438.98,3838.59 440.46,3837.19 441.10,3835.26 440.90,3832.79"/>
    </edge>
    <edge id=":103866348_2" function="internal">
        <lane id=":103866348_2_0" index="0" disallow="tram rail_urban rail rail_electric rail_fast ship container cable_car subway aircraft wheelchair scooter drone" speed="8.94" length="14.42" shape="436.66,3839.45 450.73,3836.31"/>
    </edge>
    <edge id=":103867054_0" function="internal">
        <lane id=":103867054_0_0" index="0" disallow="tram rail_urban rail rail_electric rail_fast ship container cable_car subway aircraft wheelchair scooter drone" speed="8.94" length="14.40" shape="630.32,4249.55 627.21,4235.49"/>
    </edge>
    <edge id=":103867054_1" function="internal">
        <lane id=":103867054_1_0" index="0" disallow="tram rail_urban rail rail_electric rail_fast ship container cable_car subway aircraft wheelchair scooter drone" speed="8.01" length="4.06" shape="630.32,4249.55 630.03,4245.68 630.08,4245.51"/>
    </edge>
    <edge id=":103867054_9" function="internal">
        <lane id=":103867054_9_0" index="0" disallow="tram rail_urban rail rail_electric rail_fast ship container cable_car subway aircraft wheelchair scooter drone" speed="8.01" length="10.14" shape="630.08,4245.51 631.04,4242.64 633.37,4240.42 637.01,4239.04"/>
    </edge>
    <edge id=":103867054_2" function="internal">
        <lane id=":103867054_2_0" index="0" disallow="tram rail_urban rail rail_electric rail_fast ship container cable_car subway aircraft wheelchair scooter drone" speed="6.52" length="9.05" shape="637.72,4242.16 635.39,4243.05 633.91,4244.46 633.26,4246.39 633.44,4248.86"/>
    </edge>
    <edge id=":103867054_3" function="internal">
        <lane id=":103867054_3_0" index="0" disallow="tram rail_urban rail rail_electric rail_fast ship container cable_car subway aircraft wheelchair scooter drone" speed="7.99" length="14.21" shape="637.72,4242.16 633.83,4242.47 630.79,4241.46 628.58,4239.14 627.21,4235.49"/>
    </edge>
    <edge id=":103867054_4" function="internal">
        <lane id=":103867054_4_0" index="0" disallow="tram rail_urban rail rail_electric rail_fast ship container cable_car subway aircraft wheelchair scooter drone" speed="6.50" length="9.03" shape="630.33,4234.80 631.21,4237.12 632.61,4238.60 634.54,4239.24 637.01,4239.04"/>
    </edge>
    <edge id=":103867054_5" function="internal">
        <lane id=":103867054_5_0" index="0" disallow="tram rail_urban rail rail_electric rail_fast ship container cable_car subway aircraft wheelchair scooter drone" speed="8.94" length="14.40" shape="630.33,4234.80 633.44,4248.86"/>
    </edge>
    <edge id=":103867054_6" function="internal">
        <lane id=":103867054_6_0" index="0" disallow="tram rail_urban rail rail_electric rail_fast ship container cable_car subway aircraft wheelchair scooter drone" speed="6.93" length="10.37" shape="623.30,4243.75 625.59,4242.78 627.01,4241.08 627.55,4238.65 627.21,4235.49"/>
    </edge>
    <edge id=":103867054_7" function="internal">
        <lane id=":103867054_7_0" index="0" disallow="tram rail_urban rail rail_electric rail_fast ship container cable_car subway aircraft wheelchair scooter drone" speed="8.94" length="14.51" shape="623.30,4243.75 626.81,4242.71 630.16,4241.40 633.50,4240.09 637.01,4239.04"/>
    </edge>
    <edge id=":103867054_8" function="internal">
        <lane id=":103867054_8_0" index="0" disallow="tram rail_urban rail rail_electric rail_fast ship container cable_car subway aircraft wheelchair scooter drone" speed="7.66" length="12.92" shape="623.30,4243.75 627.15,4243.35 630.13,4244.07 632.23,4245.91 633.44,4248.86"/>
    </edge>
    <edge id=":103867055_0" function="internal">
        <lane id=":103867055_0_0" index="0" disallow="tram rail_urban rail rail_electric rail_fast ship container cable_car subway aircraft wheelchair scooter drone" speed="6.44" length="9.03" shape="660.74,4387.44 659.91,4385.09 658.53,4383.60 656.60,4382.97 654.12,4383.19"/>
    </edge>
    <edge id=":103867055_1" function="internal">
        <lane id=":103867055_1_0" index="0" disallow="tram rail_urban rail rail_electric rail_fast ship container cable_car subway aircraft wheelchair scooter drone" speed="8.94" length="11.23" shape="660.74,4387.44 658.42,4376.45"/>
    </edge>
    <edge id=":103867055_2" function="internal">
        <lane id=":103867055_2_0" index="0" disallow="tram rail_urban rail rail_electric rail_fast ship container cable_car subway aircraft wheelchair scooter drone" speed="8.94" length="11.30" shape="661.55,4375.76 663.88,4386.81"/>
    </edge>
    <edge id=":103867055_3" function="internal">
        <lane id=":103867055_3_0" index="0" disallow="tram rail_urban rail rail_electric rail_fast ship container cable_car subway aircraft wheelchair scooter drone" speed="7.37" length="2.60" shape="661.55,4375.76 661.53,4378.25 661.47,4378.34"/>
    </edge>
    <edge id=":103867055_4" function="internal">
        <lane id=":103867055_4_0" index="0" disallow="tram rail_urban rail rail_electric rail_fast ship container cable_car subway aircraft wheelchair scooter drone" speed="7.37" length="9.16" shape="661.47,4378.34 660.29,4380.32 657.82,4381.96 654.12,4383.19"/>
    </edge>
    <edge id=":103867056_0" function="internal">
        <lane id=":103867056_0_0" index="0" disallow="tram rail_urban rail rail_electric rail_fast ship container cable_car subway aircraft wheelchair scooter drone" speed="6.53" length="9.08" shape="680.86,4486.88 679.97,4484.54 678.56,4483.04 676.62,4482.39 674.16,4482.57"/>
    </edge>
    <edge id=":103867056_1" function="internal">
        <lane id=":103867056_1_0" index="0" disallow="tram rail_urban rail rail_electric rail_fast ship container cable_car subway aircraft wheelchair scooter drone" speed="8.94" length="14.51" shape="680.86,4486.88 677.84,4472.69"/>
    </edge>
    <edge id=":103867056_2" function="internal">
        <lane id=":103867056_2_0" index="0" disallow="tram rail_urban rail rail_electric rail_fast ship container cable_car subway aircraft wheelchair scooter drone" speed="7.97" length="4.16" shape="680.86,4486.88 680.55,4482.98 680.63,4482.74"/>
    </edge>
    <edge id=":103867056_12" function="internal">
        <lane id=":103867056_12_0" index="0" disallow="tram rail_urban rail rail_electric rail_fast ship container cable_car subway aircraft wheelchair scooter drone" speed="7.97" length="10.09" shape="680.63,4482.74 681.57,4479.93 683.92,4477.75 687.60,4476.41"/>
    </edge>
    <edge id=":103867056_3" function="internal">
        <lane id=":103867056_3_0" index="0" disallow="tram rail_urban rail rail_electric rail_fast ship container cable_car subway aircraft wheelchair scooter drone" speed="6.47" length="9.03" shape="688.26,4479.55 685.92,4480.39 684.43,4481.78 683.79,4483.71 683.98,4486.18"/>
    </edge>
    <edge id=":103867056_4" function="internal">
        <lane id=":103867056_4_0" index="0" disallow="tram rail_urban rail rail_electric rail_fast ship container cable_car subway aircraft wheelchair scooter drone" speed="8.94" length="14.42" shape="688.26,4479.55 674.16,4482.57"/>
    </edge>
    <edge id=":103867056_5" function="internal">
        <lane id=":103867056_5_0" index="0" disallow="tram rail_urban rail rail_electric rail_fast ship container cable_car subway aircraft wheelchair scooter drone" speed="7.99" length="4.04" shape="688.26,4479.55 684.35,4479.79 684.23,4479.75"/>
    </edge>
    <edge id=":103867056_13" function="internal">
        <lane id=":103867056_13_0" index="0" disallow="tram rail_urban rail rail_electric rail_fast ship container cable_car subway aircraft wheelchair scooter drone" speed="7.99" length="10.20" shape="684.23,4479.75 681.32,4478.73 679.15,4476.37 677.84,4472.69"/>
    </edge>
    <edge id=":103867056_6" function="internal">
        <lane id=":103867056_6_0" index="0" disallow="tram rail_urban rail rail_electric rail_fast ship container cable_car subway aircraft wheelchair scooter drone" speed="6.50" length="9.05" shape="680.98,4472.06 681.81,4474.40 683.19,4475.90 685.12,4476.57 687.60,4476.41"/>
    </edge>
    <edge id=":103867056_7" function="internal">
        <lane id=":103867056_7_0" index="0" disallow="tram rail_urban rail rail_electric rail_fast ship container cable_car subway aircraft wheelchair scooter drone" speed="8.94" length="14.44" shape="680.98,4472.06 683.98,4486.18"/>
    </edge>
    <edge id=":103867056_8" function="internal">
        <lane id=":103867056_8_0" index="0" disallow="tram rail_urban rail rail_electric rail_fast ship container cable_car subway aircraft wheelchair scooter drone" speed="8.07" length="4.00" shape="680.98,4472.06 681.20,4475.95 681.17,4476.05"/>
    </edge>
    <edge id=":103867056_14" function="internal">
        <lane id=":103867056_14_0" index="0" disallow="tram rail_urban rail rail_electric rail_fast ship container cable_car subway aircraft wheelchair scooter drone" speed="8.07" length="10.23" shape="681.17,4476.05 680.14,4479.00 677.79,4481.20 674.16,4482.57"/>
    </edge>
    <edge id=":103867056_9" function="internal">
        <lane id=":103867056_9_0" index="0" disallow="tram rail_urban rail rail_electric rail_fast ship container cable_car subway aircraft wheelchair scooter drone" speed="6.59" length="9.14" shape="673.47,4479.44 675.80,4478.57 677.31,4477.15 677.99,4475.19 677.84,4472.69"/>
    </edge>
    <edge id=":103867056_10" function="internal">
        <lane id=":103867056_10_0" index="0" disallow="tram rail_urban rail rail_electric rail_fast ship container cable_car subway aircraft wheelchair scooter drone" speed="8.94" length="14.46" shape="673.47,4479.44 687.60,4476.41"/>
    </edge>
    <edge id=":103867056_11" function="internal">
        <lane id=":103867056_11_0" index="0" disallow="tram rail_urban rail rail_electric rail_fast ship container cable_car subway aircraft wheelchair scooter drone" speed="8.02" length="4.10" shape="673.47,4479.44 677.34,4479.15 677.55,4479.22"/>
    </edge>
    <edge id=":103867056_15" function="internal">
        <lane id=":103867056_15_0" index="0" disallow="tram rail_urban rail rail_electric rail_fast ship container cable_car subway aircraft wheelchair scooter drone" speed="8.02" length="10.13" shape="677.55,4479.22 680.38,4480.18 682.60,4482.52 683.98,4486.18"/>
    </edge>
    <edge id=":103868773_0" function="internal">
        <lane id=":103868773_0_0" index="0" disallow="tram rail_urban rail rail_electric rail_fast ship container cable_car subway aircraft wheelchair scooter drone" speed="6.49" length="9.03" shape="590.73,4510.00 589.87,4507.68 588.47,4506.20 586.54,4505.55 584.07,4505.75"/>
    </edge>
    <edge id=":103868773_1" function="internal">
        <lane id=":103868773_1_0" index="0" disallow="tram rail_urban rail rail_electric rail_fast ship container cable_car subway aircraft wheelchair scooter drone" speed="8.69" length="16.87" shape="590.73,4510.00 590.15,4504.75 590.97,4500.72 593.17,4497.93 596.76,4496.37"/>
    </edge>
    <edge id=":103868773_2" function="internal">
        <lane id=":103868773_2_0" index="0" disallow="tram rail_urban rail rail_electric rail_fast ship container cable_car subway aircraft wheelchair scooter drone" speed="7.35" length="11.76" shape="597.45,4499.49 595.18,4500.56 593.82,4502.55 593.38,4505.48 593.86,4509.33"/>
    </edge>
    <edge id=":103868773_3" function="internal">
        <lane id=":103868773_3_0" index="0" disallow="tram rail_urban rail rail_electric rail_fast ship container cable_car subway aircraft wheelchair scooter drone" speed="8.94" length="14.64" shape="597.45,4499.49 594.31,4500.70 591.63,4502.42 588.51,4504.24 584.07,4505.75"/>
        <lane id=":103868773_3_1" index="1" disallow="tram rail_urban rail rail_electric rail_fast ship container cable_car subway aircraft wheelchair scooter drone" speed="8.94" length="14.64" shape="597.45,4499.49 583.37,4502.62"/>
    </edge>
    <edge id=":103868773_5" function="internal">
        <lane id=":103868773_5_0" index="0" disallow="tram rail_urban rail rail_electric rail_fast ship container cable_car subway aircraft wheelchair scooter drone" speed="8.94" length="14.44" shape="582.66,4499.50 596.76,4496.37"/>
    </edge>
    <edge id=":103868773_6" function="internal">
        <lane id=":103868773_6_0" index="0" disallow="tram rail_urban rail rail_electric rail_fast ship container cable_car subway aircraft wheelchair scooter drone" speed="8.66" length="3.74" shape="582.66,4499.50 586.40,4499.39"/>
    </edge>
    <edge id=":103868773_7" function="internal">
        <lane id=":103868773_7_0" index="0" disallow="tram rail_urban rail rail_electric rail_fast ship container cable_car subway aircraft wheelchair scooter drone" speed="8.66" length="13.16" shape="586.40,4499.39 586.61,4499.39 589.79,4500.99 592.20,4504.30 593.86,4509.33"/>
    </edge>
    <edge id=":103868775_0" function="internal">
        <lane id=":103868775_0_0" index="0" disallow="tram rail_urban rail rail_electric rail_fast ship container cable_car subway aircraft wheelchair scooter drone" speed="6.50" length="9.03" shape="527.59,4518.42 525.28,4519.30 523.80,4520.71 523.16,4522.64 523.36,4525.11"/>
    </edge>
    <edge id=":103868775_1" function="internal">
        <lane id=":103868775_1_0" index="0" disallow="tram rail_urban rail rail_electric rail_fast ship container cable_car subway aircraft wheelchair scooter drone" speed="8.94" length="11.20" shape="527.59,4518.42 516.66,4520.87"/>
        <lane id=":103868775_1_1" index="1" disallow="tram rail_urban rail rail_electric rail_fast ship container cable_car subway aircraft wheelchair scooter drone" speed="8.94" length="11.20" shape="526.89,4515.30 515.96,4517.75"/>
    </edge>
    <edge id=":103868775_3" function="internal">
        <lane id=":103868775_3_0" index="0" disallow="tram rail_urban rail rail_electric rail_fast ship container cable_car subway aircraft wheelchair scooter drone" speed="6.50" length="9.03" shape="519.51,4507.93 520.38,4510.25 521.78,4511.73 523.72,4512.37 526.19,4512.17"/>
    </edge>
    <edge id=":103868775_4" function="internal">
        <lane id=":103868775_4_0" index="0" disallow="tram rail_urban rail rail_electric rail_fast ship container cable_car subway aircraft wheelchair scooter drone" speed="8.94" length="17.61" shape="519.51,4507.93 523.36,4525.11"/>
    </edge>
    <edge id=":103868775_5" function="internal">
        <lane id=":103868775_5_0" index="0" disallow="tram rail_urban rail rail_electric rail_fast ship container cable_car subway aircraft wheelchair scooter drone" speed="7.33" length="11.73" shape="519.51,4507.93 520.00,4511.77 519.57,4514.68 518.23,4516.68 515.96,4517.75"/>
    </edge>
    <edge id=":103868775_6" function="internal">
        <lane id=":103868775_6_0" index="0" disallow="tram rail_urban rail rail_electric rail_fast ship container cable_car subway aircraft wheelchair scooter drone" speed="8.94" length="11.20" shape="515.26,4514.63 526.19,4512.17"/>
    </edge>
    <edge id=":103868775_7" function="internal">
        <lane id=":103868775_7_0" index="0" disallow="tram rail_urban rail rail_electric rail_fast ship container cable_car subway aircraft wheelchair scooter drone" speed="8.10" length="2.37" shape="515.26,4514.63 517.62,4514.81"/>
    </edge>
    <edge id=":103868775_8" function="internal">
        <lane id=":103868775_8_0" index="0" disallow="tram rail_urban rail rail_electric rail_fast ship container cable_car subway aircraft wheelchair scooter drone" speed="8.10" length="12.20" shape="517.62,4514.81 517.81,4514.82 520.01,4516.64 521.86,4520.07 523.36,4525.11"/>
    </edge>
    <edge id=":103868842_0" function="internal">
        <lane id=":103868842_0_0" index="0" disallow="tram rail_urban rail rail_electric rail_fast ship container cable_car subway aircraft wheelchair scooter drone" speed="6.51" length="8.98" shape="474.15,3985.63 473.29,3983.33 471.90,3981.85 469.97,3981.19 467.52,3981.35"/>
    </edge>
    <edge id=":103869945_0" function="internal">
        <lane id=":103869945_0_0" index="0" disallow="tram rail_urban rail rail_electric rail_fast ship container cable_car subway aircraft wheelchair scooter drone" speed="6.96" length="10.41" shape="408.68,2854.13 407.62,2851.11 406.09,2849.13 404.08,2848.19 401.59,2848.28"/>
    </edge>
    <edge id=":103869945_1" function="internal">
        <lane id=":103869945_1_0" index="0" disallow="tram rail_urban rail rail_electric rail_fast ship container cable_car subway aircraft wheelchair scooter drone" speed="8.94" length="14.47" shape="408.68,2854.13 405.52,2840.01"/>
    </edge>
    <edge id=":103869945_2" function="internal">
        <lane id=":103869945_2_0" index="0" disallow="tram rail_urban rail rail_electric rail_fast ship container cable_car subway aircraft wheelchair scooter drone" speed="7.98" length="4.13" shape="408.68,2854.13 408.34,2850.23 408.41,2850.02"/>
    </edge>
    <edge id=":103869945_9" function="internal">
        <lane id=":103869945_9_0" index="0" disallow="tram rail_urban rail rail_electric rail_fast ship container cable_car subway aircraft wheelchair scooter drone" speed="7.98" length="10.11" shape="408.41,2850.02 409.34,2847.18 411.67,2844.97 415.34,2843.60"/>
    </edge>
    <edge id=":103869945_3" function="internal">
        <lane id=":103869945_3_0" index="0" disallow="tram rail_urban rail rail_electric rail_fast ship container cable_car subway aircraft wheelchair scooter drone" speed="6.48" length="9.03" shape="416.02,2846.73 413.70,2847.60 412.22,2849.00 411.58,2850.93 411.80,2853.40"/>
    </edge>
    <edge id=":103869945_4" function="internal">
        <lane id=":103869945_4_0" index="0" disallow="tram rail_urban rail rail_electric rail_fast ship container cable_car subway aircraft wheelchair scooter drone" speed="8.94" length="14.53" shape="416.02,2846.73 412.39,2847.27 408.80,2847.50 405.21,2847.73 401.59,2848.28"/>
    </edge>
    <edge id=":103869945_5" function="internal">
        <lane id=":103869945_5_0" index="0" disallow="tram rail_urban rail rail_electric rail_fast ship container cable_car subway aircraft wheelchair scooter drone" speed="8.01" length="14.23" shape="416.02,2846.73 412.12,2847.02 409.07,2845.99 406.87,2843.65 405.52,2840.01"/>
    </edge>
    <edge id=":103869945_6" function="internal">
        <lane id=":103869945_6_0" index="0" disallow="tram rail_urban rail rail_electric rail_fast ship container cable_car subway aircraft wheelchair scooter drone" speed="6.51" length="9.06" shape="408.65,2839.33 409.51,2841.65 410.91,2843.14 412.85,2843.79 415.34,2843.60"/>
    </edge>
    <edge id=":103869945_7" function="internal">
        <lane id=":103869945_7_0" index="0" disallow="tram rail_urban rail rail_electric rail_fast ship container cable_car subway aircraft wheelchair scooter drone" speed="8.94" length="14.42" shape="408.65,2839.33 411.80,2853.40"/>
    </edge>
    <edge id=":103869945_8" function="internal">
        <lane id=":103869945_8_0" index="0" disallow="tram rail_urban rail rail_electric rail_fast ship container cable_car subway aircraft wheelchair scooter drone" speed="7.68" length="3.20" shape="408.65,2839.33 408.77,2842.53"/>
    </edge>
    <edge id=":103869945_10" function="internal">
        <lane id=":103869945_10_0" index="0" disallow="tram rail_urban rail rail_electric rail_fast ship container cable_car subway aircraft wheelchair scooter drone" speed="7.68" length="9.74" shape="408.77,2842.53 407.64,2845.08 405.25,2847.00 401.59,2848.28"/>
    </edge>
    <edge id=":103869949_0" function="internal">
        <lane id=":103869949_0_0" index="0" disallow="tram rail_urban rail rail_electric rail_fast ship container cable_car subway aircraft wheelchair scooter drone" speed="6.51" length="9.02" shape="241.38,2883.89 239.07,2884.76 237.59,2886.16 236.94,2888.09 237.12,2890.55"/>
    </edge>
    <edge id=":103874278_0" function="internal">
        <lane id=":103874278_0_0" index="0" disallow="tram rail_urban rail rail_electric rail_fast ship container cable_car subway aircraft wheelchair scooter drone" speed="8.94" length="14.38" shape="441.44,2995.72 438.23,2981.70"/>
    </edge>
    <edge id=":103874278_1" function="internal">
        <lane id=":103874278_1_0" index="0" disallow="tram rail_urban rail rail_electric rail_fast ship container cable_car subway aircraft wheelchair scooter drone" speed="7.98" length="4.06" shape="441.44,2995.72 441.12,2991.82 441.17,2991.68"/>
    </edge>
    <edge id=":103874278_9" function="internal">
        <lane id=":103874278_9_0" index="0" disallow="tram rail_urban rail rail_electric rail_fast ship container cable_car subway aircraft wheelchair scooter drone" speed="7.98" length="10.18" shape="441.17,2991.68 442.14,2988.78 444.48,2986.58 448.15,2985.23"/>
    </edge>
    <edge id=":103874278_2" function="internal">
        <lane id=":103874278_2_0" index="0" disallow="tram rail_urban rail rail_electric rail_fast ship container cable_car subway aircraft wheelchair scooter drone" speed="6.48" length="9.03" shape="448.81,2988.36 446.49,2989.21 445.00,2990.61 444.36,2992.54 444.56,2995.01"/>
    </edge>
    <edge id=":103874278_3" function="internal">
        <lane id=":103874278_3_0" index="0" disallow="tram rail_urban rail rail_electric rail_fast ship container cable_car subway aircraft wheelchair scooter drone" speed="8.06" length="14.21" shape="448.81,2988.36 444.92,2988.63 441.86,2987.61 439.63,2985.30 438.23,2981.70"/>
    </edge>
    <edge id=":103874278_4" function="internal">
        <lane id=":103874278_4_0" index="0" disallow="tram rail_urban rail rail_electric rail_fast ship container cable_car subway aircraft wheelchair scooter drone" speed="6.57" length="9.11" shape="441.34,2980.98 442.24,2983.28 443.67,2984.76 445.64,2985.41 448.15,2985.23"/>
    </edge>
    <edge id=":103874278_5" function="internal">
        <lane id=":103874278_5_0" index="0" disallow="tram rail_urban rail rail_electric rail_fast ship container cable_car subway aircraft wheelchair scooter drone" speed="8.94" length="14.39" shape="441.34,2980.98 444.56,2995.01"/>
    </edge>
    <edge id=":103874278_6" function="internal">