<?xml version="1.0" encoding="UTF-8"?>
<routes xmlns:xsi="http://www.w3.org/2001/XMLSchema-instance" xsi:noNamespaceSchemaLocation="http://sumo.dlr.de/xsd/routes_file.xsd">
    <include href="baseline_vtypes.xml"/>

    <route id="route_trip_0" edges="219654674"/>
    <route id="route_trip_3" edges="219654674"/>
    <route id="route_trip_4" edges="219654674"/>
    <route id="route_trip_38" edges="5678940"/>
    <route id="route_trip_39" edges="5678940"/>
    <route id="route_trip_70" edges="219654674"/>
    <route id="route_trip_73" edges="219654674"/>
    <route id="route_trip_74" edges="219654674"/>
    <route id="route_trip_105" edges="219654674"/>
    <route id="route_trip_108" edges="219654674"/>
    <route id="route_trip_109" edges="219654674"/>
    <route id="route_trip_142" edges="226041003"/>
    <route id="route_trip_143" edges="226041003"/>
    <route id="route_trip_144" edges="226041003"/>
    <route id="route_trip_178" edges="336872313"/>
    <route id="route_trip_179" edges="336872313"/>
    <route id="route_trip_183" edges="336872313"/>
    <route id="route_trip_190" edges="336872313"/>
    <route id="route_trip_194" edges="336872313"/>
    <route id="route_trip_195" edges="336872313"/>
    <route id="route_trip_210" edges="219654674"/>
    <route id="route_trip_213" edges="219654674"/>
    <route id="route_trip_214" edges="219654674"/>
    <route id="route_trip_248" edges="682359868"/>
    <route id="route_trip_249" edges="682359868"/>
    <route id="route_trip_283" edges="1211608942"/>
    <route id="route_trip_284" edges="1211608942"/>
    <route id="route_trip_318" edges="381480256"/>
    <route id="route_trip_319" edges="381480256"/>
    <route id="route_trip_324" edges="381480256"/>
    <route id="route_trip_353" edges="36801165"/>
    <route id="route_trip_354" edges="36801165"/>
    <route id="route_trip_388" edges="46201642"/>
    <route id="route_trip_389" edges="46201642"/>
    <route id="route_trip_420" edges="219654674"/>
    <route id="route_trip_423" edges="219654674"/>
    <route id="route_trip_424" edges="219654674"/>
    <route id="route_trip_458" edges="682359868"/>
    <route id="route_trip_459" edges="682359868"/>
    <route id="route_trip_493" edges="682359868"/>
    <route id="route_trip_494" edges="682359868"/>
    <route id="route_trip_525" edges="219654674"/>
    <route id="route_trip_528" edges="219654674"/>
    <route id="route_trip_529" edges="219654674"/>
    <route id="route_trip_562" edges="226041003"/>
    <route id="route_trip_563" edges="226041003"/>
    <route id="route_trip_564" edges="226041003"/>
    <route id="route_trip_598" edges="381480256"/>
    <route id="route_trip_599" edges="381480256"/>
    <route id="route_trip_604" edges="381480256"/>
    <route id="route_trip_633" edges="1211608942"/>
    <route id="route_trip_634" edges="1211608942"/>
    <route id="route_trip_668" edges="1211608942"/>
    <route id="route_trip_669" edges="1211608942"/>
    <route id="route_trip_703" edges="336872313"/>
    <route id="route_trip_704" edges="336872313"/>
    <route id="route_trip_708" edges="336872313"/>
    <route id="route_trip_715" edges="336872313"/>
    <route id="route_trip_719" edges="336872313"/>
    <route id="route_trip_720" edges="336872313"/>
    <route id="route_trip_738" edges="336872313"/>
    <route id="route_trip_739" edges="336872313"/>
    <route id="route_trip_743" edges="336872313"/>
    <route id="route_trip_750" edges="336872313"/>
    <route id="route_trip_754" edges="336872313"/>
    <route id="route_trip_755" edges="336872313"/>
    <route id="route_trip_773" edges="162041587#0"/>
    <route id="route_trip_774" edges="162041587#0"/>
    <route id="route_trip_808" edges="682359868"/>
    <route id="route_trip_809" edges="682359868"/>
    <route id="route_trip_840" edges="219654674"/>
    <route id="route_trip_843" edges="219654674"/>
    <route id="route_trip_844" edges="219654674"/>
    <route id="route_trip_878" edges="453367786#1"/>
    <route id="route_trip_879" edges="453367786#1"/>
    <route id="route_trip_913" edges="1211608942"/>
    <route id="route_trip_914" edges="1211608942"/>
    <route id="route_trip_948" edges="336872313"/>
    <route id="route_trip_949" edges="336872313"/>
    <route id="route_trip_953" edges="336872313"/>
    <route id="route_trip_960" edges="336872313"/>
    <route id="route_trip_964" edges="336872313"/>
    <route id="route_trip_965" edges="336872313"/>
    <route id="route_trip_983" edges="336872313"/>
    <route id="route_trip_984" edges="336872313"/>
    <route id="route_trip_988" edges="336872313"/>
    <route id="route_trip_995" edges="336872313"/>
    <route id="route_trip_999" edges="336872313"/>
    <route id="route_trip_1000" edges="336872313"/>
    <route id="route_trip_1018" edges="336872313"/>
    <route id="route_trip_1019" edges="336872313"/>
    <route id="route_trip_1023" edges="336872313"/>
    <route id="route_trip_1030" edges="336872313"/>
    <route id="route_trip_1034" edges="336872313"/>
    <route id="route_trip_1035" edges="336872313"/>
    <route id="route_trip_1053" edges="336872313"/>
    <route id="route_trip_1054" edges="336872313"/>
    <route id="route_trip_1058" edges="336872313"/>
    <route id="route_trip_1065" edges="336872313"/>
    <route id="route_trip_1069" edges="336872313"/>
    <route id="route_trip_1070" edges="336872313"/>
    <route id="route_trip_1085" edges="219654674"/>
    <route id="route_trip_1088" edges="219654674"/>
    <route id="route_trip_1089" edges="219654674"/>
    <route id="route_trip_1123" edges="397795464"/>
    <route id="route_trip_1124" edges="397795464"/>
    <route id="route_trip_1158" edges="162041587#0"/>
    <route id="route_trip_1159" edges="162041587#0"/>
    <route id="route_trip_1193" edges="33804436"/>
    <route id="route_trip_1194" edges="33804436"/>
    <route id="route_trip_1228" edges="162041587#0"/>
    <route id="route_trip_1229" edges="162041587#0"/>
    <route id="route_trip_1263" edges="162041587#0"/>
    <route id="route_trip_1264" edges="162041587#0"/>
    <route id="route_trip_1298" edges="397795464"/>
    <route id="route_trip_1299" edges="397795464"/>
    <route id="route_trip_1333" edges="162041587#0"/>
    <route id="route_trip_1334" edges="162041587#0"/>
    <route id="route_trip_1368" edges="162041587#1"/>
    <route id="route_trip_1369" edges="162041587#1"/>
    <route id="route_trip_1403" edges="195743264"/>
    <route id="route_trip_1404" edges="195743264"/>
    <route id="route_trip_1411" edges="195743264"/>
    <route id="route_trip_1418" edges="195743264"/>
    <route id="route_trip_1428" edges="195743264"/>
    <route id="route_trip_1438" edges="110542345"/>
    <route id="route_trip_1439" edges="110542345"/>
    <route id="route_trip_1473" edges="397795464"/>
    <route id="route_trip_1474" edges="397795464"/>
    <route id="route_trip_1505" edges="219654674"/>
    <route id="route_trip_1506" edges="125525171"/>
    <route id="route_trip_1507" edges="226041003"/>
    <route id="route_trip_1510" edges="439933945"/>
    <route id="route_trip_1511" edges="480112478#1"/>
    <route id="route_trip_1512" edges="32947291"/>
    <route id="route_trip_1513" edges="336872313"/>
    <route id="route_trip_1514" edges="381480256"/>
    <route id="route_trip_1515" edges="1057788581"/>
    <route id="route_trip_1516" edges="195743264"/>
    <route id="route_trip_1517" edges="1057788581"/>
    <route id="route_trip_1518" edges="68668522"/>
    <route id="route_trip_1519" edges="125525171"/>
    <route id="route_trip_1520" edges="336872313"/>
    <route id="route_trip_1521" edges="125525171"/>
    <route id="route_trip_1522" edges="1057788581"/>
    <route id="route_trip_1523" edges="195743264"/>
    <route id="route_trip_1524" edges="336872313"/>
    <route id="route_trip_1525" edges="336872313"/>
    <route id="route_trip_1526" edges="5672118"/>
    <route id="route_trip_1527" edges="5672118"/>
    <route id="route_trip_1528" edges="226041011"/>
    <route id="route_trip_1529" edges="125525171"/>
    <route id="route_trip_1530" edges="125525171"/>
    <route id="route_trip_1531" edges="125525171"/>
    <route id="route_trip_1532" edges="945460473"/>
    <route id="route_trip_1533" edges="195743264"/>
    <route id="route_trip_1534" edges="1061993519"/>
    <route id="route_trip_1535" edges="1061993519"/>
    <route id="route_trip_1536" edges="1061993519"/>
    <route id="route_trip_1537" edges="1061993519"/>
    <route id="route_trip_1538" edges="945460473"/>
    <route id="route_trip_1539" edges="1085256809"/>
    <route id="route_trip_1543" edges="195743264"/>
    <route id="route_trip_1544" edges="195743264"/>
    <route id="route_trip_1551" edges="195743264"/>
    <route id="route_trip_1558" edges="195743264"/>
    <route id="route_trip_1568" edges="195743264"/>
    <route id="route_trip_1578" edges="-195743189"/>
    <route id="route_trip_1579" edges="-195743189"/>
    <route id="route_trip_1613" edges="770524299#1"/>
    <route id="route_trip_1614" edges="770524299#1"/>
    <route id="route_trip_1645" edges="219654674"/>
    <route id="route_trip_1646" edges="125525171"/>
    <route id="route_trip_1647" edges="226041003"/>
    <route id="route_trip_1650" edges="439933945"/>
    <route id="route_trip_1651" edges="480112478#1"/>
    <route id="route_trip_1652" edges="32947291"/>
    <route id="route_trip_1653" edges="336872313"/>
    <route id="route_trip_1654" edges="381480256"/>
    <route id="route_trip_1655" edges="1057788581"/>
    <route id="route_trip_1656" edges="195743264"/>
    <route id="route_trip_1657" edges="1057788581"/>
    <route id="route_trip_1658" edges="68668522"/>
    <route id="route_trip_1659" edges="125525171"/>
    <route id="route_trip_1660" edges="336872313"/>
    <route id="route_trip_1661" edges="125525171"/>
    <route id="route_trip_1662" edges="1057788581"/>
    <route id="route_trip_1663" edges="195743264"/>
    <route id="route_trip_1664" edges="336872313"/>
    <route id="route_trip_1665" edges="336872313"/>
    <route id="route_trip_1666" edges="5672118"/>
    <route id="route_trip_1667" edges="5672118"/>
    <route id="route_trip_1668" edges="226041011"/>
    <route id="route_trip_1669" edges="125525171"/>
    <route id="route_trip_1670" edges="125525171"/>
    <route id="route_trip_1671" edges="125525171"/>
    <route id="route_trip_1672" edges="945460473"/>
    <route id="route_trip_1673" edges="195743264"/>
    <route id="route_trip_1674" edges="1061993519"/>
    <route id="route_trip_1675" edges="1061993519"/>
    <route id="route_trip_1676" edges="1061993519"/>
    <route id="route_trip_1677" edges="1061993519"/>
    <route id="route_trip_1678" edges="945460473"/>
    <route id="route_trip_1679" edges="1085256809"/>
    <route id="route_trip_1683" edges="475867322"/>
    <route id="route_trip_1684" edges="475867322"/>
    <route id="route_trip_1718" edges="195743264"/>
    <route id="route_trip_1719" edges="195743264"/>
    <route id="route_trip_1726" edges="195743264"/>
    <route id="route_trip_1733" edges="195743264"/>
    <route id="route_trip_1743" edges="195743264"/>
    <route id="route_trip_1753" edges="195743264"/>
    <route id="route_trip_1754" edges="195743264"/>
    <route id="route_trip_1761" edges="195743264"/>
    <route id="route_trip_1768" edges="195743264"/>
    <route id="route_trip_1778" edges="195743264"/>
    <route id="route_trip_1788" edges="475867322"/>
    <route id="route_trip_1789" edges="475867322"/>
    <route id="route_trip_1823" edges="1053554760"/>
    <route id="route_trip_1824" edges="1053554760"/>
    <route id="route_trip_1858" edges="195743264"/>
    <route id="route_trip_1859" edges="195743264"/>
    <route id="route_trip_1866" edges="195743264"/>
    <route id="route_trip_1873" edges="195743264"/>
    <route id="route_trip_1883" edges="195743264"/>
    <route id="route_trip_1893" edges="195743264"/>
    <route id="route_trip_1894" edges="195743264"/>
    <route id="route_trip_1901" edges="195743264"/>
    <route id="route_trip_1908" edges="195743264"/>
    <route id="route_trip_1918" edges="195743264"/>
    <route id="route_trip_1928" edges="195743264"/>
    <route id="route_trip_1929" edges="195743264"/>
    <route id="route_trip_1936" edges="195743264"/>
    <route id="route_trip_1943" edges="195743264"/>
    <route id="route_trip_1953" edges="195743264"/>
    <route id="route_trip_1963" edges="195743264"/>
    <route id="route_trip_1964" edges="195743264"/>
    <route id="route_trip_1971" edges="195743264"/>
    <route id="route_trip_1978" edges="195743264"/>
    <route id="route_trip_1988" edges="195743264"/>
    <route id="route_trip_1998" edges="-420772653"/>
    <route id="route_trip_1999" edges="-420772653"/>
    <route id="route_trip_2033" edges="195743189"/>
    <route id="route_trip_2034" edges="195743189"/>
    <route id="route_trip_2068" edges="770524299#1"/>
    <route id="route_trip_2069" edges="770524299#1"/>
    <route id="route_trip_2103" edges="1053554760"/>
    <route id="route_trip_2104" edges="1053554760"/>
    <route id="route_trip_2138" edges="195743264"/>
    <route id="route_trip_2139" edges="195743264"/>
    <route id="route_trip_2146" edges="195743264"/>
    <route id="route_trip_2153" edges="195743264"/>
    <route id="route_trip_2163" edges="195743264"/>
    <route id="route_trip_2173" edges="195743264"/>
    <route id="route_trip_2174" edges="195743264"/>
    <route id="route_trip_2181" edges="195743264"/>
    <route id="route_trip_2188" edges="195743264"/>
    <route id="route_trip_2198" edges="195743264"/>
    <route id="route_trip_2208" edges="195743264"/>
    <route id="route_trip_2209" edges="195743264"/>
    <route id="route_trip_2216" edges="195743264"/>
    <route id="route_trip_2223" edges="195743264"/>
    <route id="route_trip_2233" edges="195743264"/>
    <route id="route_trip_2243" edges="5672450#2"/>
    <route id="route_trip_2244" edges="5672450#2"/>
    <route id="route_trip_2278" edges="27523630"/>
    <route id="route_trip_2279" edges="27523630"/>
    <route id="route_trip_2313" edges="628093103"/>
    <route id="route_trip_2314" edges="628093103"/>
    <route id="route_trip_2345" edges="219654674"/>
    <route id="route_trip_2348" edges="219654674"/>
    <route id="route_trip_2349" edges="219654674"/>
    <route id="route_trip_2383" edges="1085256809"/>
    <route id="route_trip_2384" edges="1085256809"/>
    <route id="route_trip_2414" edges="1085256809"/>
    <route id="route_trip_2418" edges="1085256809"/>
    <route id="route_trip_2419" edges="1085256809"/>
    <route id="route_trip_2449" edges="1085256809"/>
    <route id="route_trip_2453" edges="27523630"/>
    <route id="route_trip_2454" edges="27523630"/>
    <route id="route_trip_2488" edges="222857308"/>
    <route id="route_trip_2489" edges="222857308"/>
    <route id="route_trip_2523" edges="-36801165"/>
    <route id="route_trip_2524" edges="-36801165"/>
    <route id="route_trip_2558" edges="195743208#0"/>
    <route id="route_trip_2559" edges="195743208#0"/>
    <route id="route_trip_2593" edges="1085256809"/>
    <route id="route_trip_2594" edges="1085256809"/>
    <route id="route_trip_2624" edges="1085256809"/>
    <route id="route_trip_2628" edges="27523630"/>
    <route id="route_trip_2629" edges="27523630"/>
    <route id="route_trip_2663" edges="27523630"/>
    <route id="route_trip_2664" edges="27523630"/>
    <route id="route_trip_2698" edges="27523630"/>
    <route id="route_trip_2699" edges="27523630"/>
    <route id="route_trip_2733" edges="46481738"/>
    <route id="route_trip_2734" edges="46481738"/>
    <route id="route_trip_2768" edges="1362576631"/>
    <route id="route_trip_2769" edges="1362576631"/>
    <route id="route_trip_2803" edges="1085256809"/>
    <route id="route_trip_2804" edges="1085256809"/>
    <route id="route_trip_2834" edges="1085256809"/>
    <route id="route_trip_2838" edges="1085256809"/>
    <route id="route_trip_2839" edges="1085256809"/>
    <route id="route_trip_2869" edges="1085256809"/>
    <route id="route_trip_2873" edges="1085256809"/>
    <route id="route_trip_2874" edges="1085256809"/>
    <route id="route_trip_2904" edges="1085256809"/>
    <route id="route_trip_2908" edges="1085256809"/>
    <route id="route_trip_2909" edges="1085256809"/>
    <route id="route_trip_2939" edges="1085256809"/>
    <route id="route_trip_2943" edges="1085256809"/>
    <route id="route_trip_2944" edges="1085256809"/>
    <route id="route_trip_2974" edges="1085256809"/>
    <route id="route_trip_2978" edges="222857308"/>
    <route id="route_trip_2979" edges="222857308"/>
    <route id="route_trip_3013" edges="222857308"/>
    <route id="route_trip_3014" edges="222857308"/>
    <route id="route_trip_3045" edges="219654674"/>
    <route id="route_trip_3046" edges="125525171"/>
    <route id="route_trip_3047" edges="226041003"/>
    <route id="route_trip_3050" edges="439933945"/>
    <route id="route_trip_3051" edges="480112478#1"/>
    <route id="route_trip_3052" edges="32947291"/>
    <route id="route_trip_3053" edges="336872313"/>
    <route id="route_trip_3054" edges="381480256"/>
    <route id="route_trip_3055" edges="1057788581"/>
    <route id="route_trip_3056" edges="195743264"/>
    <route id="route_trip_3057" edges="1057788581"/>
    <route id="route_trip_3058" edges="68668522"/>
    <route id="route_trip_3059" edges="125525171"/>
    <route id="route_trip_3060" edges="336872313"/>
    <route id="route_trip_3061" edges="125525171"/>
    <route id="route_trip_3062" edges="1057788581"/>
    <route id="route_trip_3063" edges="195743264"/>
    <route id="route_trip_3064" edges="336872313"/>
    <route id="route_trip_3065" edges="336872313"/>
    <route id="route_trip_3066" edges="5672118"/>
    <route id="route_trip_3067" edges="5672118"/>
    <route id="route_trip_3068" edges="226041011"/>
    <route id="route_trip_3069" edges="125525171"/>
    <route id="route_trip_3070" edges="125525171"/>
    <route id="route_trip_3071" edges="125525171"/>
    <route id="route_trip_3072" edges="945460473"/>
    <route id="route_trip_3073" edges="195743264"/>
    <route id="route_trip_3074" edges="1061993519"/>
    <route id="route_trip_3075" edges="1061993519"/>
    <route id="route_trip_3076" edges="1061993519"/>
    <route id="route_trip_3077" edges="1061993519"/>
    <route id="route_trip_3078" edges="945460473"/>
    <route id="route_trip_3079" edges="1085256809"/>
    <route id="route_trip_3083" edges="492489893"/>
    <route id="route_trip_3084" edges="492489893"/>
    <route id="route_trip_3118" edges="518451327"/>
    <route id="route_trip_3119" edges="518451327"/>
    <route id="route_trip_3153" edges="-68668522"/>
    <route id="route_trip_3154" edges="-68668522"/>
    <route id="route_trip_3188" edges="222299248"/>
    <route id="route_trip_3189" edges="222299248"/>
    <route id="route_trip_3223" edges="46334595"/>
    <route id="route_trip_3224" edges="46334595"/>
    <route id="route_trip_3258" edges="993797876#0"/>
    <route id="route_trip_3259" edges="993797876#0"/>
    <route id="route_trip_3293" edges="456409017#0"/>
    <route id="route_trip_3294" edges="456409017#0"/>
    <route id="route_trip_3297" edges="456409017#0 658583340#0 458166897#8 458166897#9 458166897#10 46521994 226041009 375316256 32946655 -169381963#1 -169381963#0 -68668557 -421851200 32947291"/>
    <route id="route_trip_3313" edges="456409017#0 658583340#0 658583340#1 458180193#2 458180189 458180186#0 1049841322#3 1049841322#4 1201651435#0 1201651435#1 497165756 226041011"/>
    <route id="route_trip_3328" edges="658583343"/>
    <route id="route_trip_3329" edges="658583343"/>
    <route id="route_trip_3363" edges="1085256809"/>
    <route id="route_trip_3364" edges="1085256809"/>
    <route id="route_trip_3394" edges="1085256809"/>
    <route id="route_trip_3398" edges="1085256809"/>
    <route id="route_trip_3399" edges="1085256809"/>
    <route id="route_trip_3429" edges="1085256809"/>
    <route id="route_trip_3433" edges="32947291"/>
    <route id="route_trip_3434" edges="32947291"/>
    <route id="route_trip_3437" edges="32947291"/>
    <route id="route_trip_3468" edges="-739591695#0"/>
    <route id="route_trip_3469" edges="-739591695#0"/>
    <route id="route_trip_3503" edges="46116314"/>
    <route id="route_trip_3504" edges="46116314"/>
    <route id="route_trip_3538" edges="46116314"/>
    <route id="route_trip_3539" edges="46116314"/>
    <route id="route_trip_3573" edges="46116314"/>
    <route id="route_trip_3574" edges="46116314"/>
    <route id="route_trip_3608" edges="46116314"/>
    <route id="route_trip_3609" edges="46116314"/>
    <route id="route_trip_3643" edges="32947291"/>
    <route id="route_trip_3644" edges="32947291"/>
    <route id="route_trip_3647" edges="32947291"/>
    <route id="route_trip_3678" edges="739591695#0"/>
    <route id="route_trip_3679" edges="739591695#0"/>
    <route id="route_trip_3713" edges="1250866957"/>
    <route id="route_trip_3714" edges="1250866957"/>
    <route id="route_trip_3717" edges="1250866957 458180194 46521994 226041009 375316256 32946655 -169381963#1 -169381963#0 -68668557 -421851200 32947291"/>
    <route id="route_trip_3733" edges="1250866957 458180195 458180193#0 458180193#1 458180193#2 458180189 458180186#0 1049841322#3 1049841322#4 1201651435#0 1201651435#1 497165756 226041011"/>
    <route id="route_trip_3748" edges="1085256809"/>
    <route id="route_trip_3749" edges="1085256809"/>
    <route id="route_trip_3779" edges="1085256809"/>
    <route id="route_trip_3783" edges="1250866957"/>
    <route id="route_trip_3784" edges="1250866957"/>
    <route id="route_trip_3787" edges="1250866957 458180194 46521994 226041009 375316256 32946655 -169381963#1 -169381963#0 -68668557 -421851200 32947291"/>
    <route id="route_trip_3803" edges="1250866957 458180195 458180193#0 458180193#1 458180193#2 458180189 458180186#0 1049841322#3 1049841322#4 1201651435#0 1201651435#1 497165756 226041011"/>
    <route id="route_trip_3818" edges="1250866957"/>
    <route id="route_trip_3819" edges="1250866957"/>
    <route id="route_trip_3822" edges="1250866957 458180194 46521994 226041009 375316256 32946655 -169381963#1 -169381963#0 -68668557 -421851200 32947291"/>
    <route id="route_trip_3838" edges="1250866957 458180195 458180193#0 458180193#1 458180193#2 458180189 458180186#0 1049841322#3 1049841322#4 1201651435#0 1201651435#1 497165756 226041011"/>
    <route id="route_trip_3853" edges="458180194"/>
    <route id="route_trip_3854" edges="458180194"/>
    <route id="route_trip_3857" edges="458180194 46521994 226041009 375316256 32946655 -169381963#1 -169381963#0 -68668557 -421851200 32947291"/>
    <route id="route_trip_3888" edges="-68668522"/>
    <route id="route_trip_3889" edges="-68668522"/>
    <route id="route_trip_3923" edges="46116314"/>
    <route id="route_trip_3924" edges="46116314"/>
    <route id="route_trip_3958" edges="46116314"/>
    <route id="route_trip_3959" edges="46116314"/>
    <route id="route_trip_3993" edges="1188730002"/>
    <route id="route_trip_3994" edges="1188730002"/>
    <route id="route_trip_4028" edges="739591695#0"/>
    <route id="route_trip_4029" edges="739591695#0"/>
    <route id="route_trip_4063" edges="27523630"/>
    <route id="route_trip_4064" edges="27523630"/>
    <route id="route_trip_4098" edges="-416175739"/>
    <route id="route_trip_4099" edges="-416175739"/>
    <route id="route_trip_4131" edges="125525171"/>
    <route id="route_trip_4133" edges="125525171"/>
    <route id="route_trip_4134" edges="125525171"/>
    <route id="route_trip_4144" edges="125525171"/>
    <route id="route_trip_4146" edges="125525171"/>
    <route id="route_trip_4154" edges="125525171"/>
    <route id="route_trip_4155" edges="125525171"/>
    <route id="route_trip_4156" edges="125525171"/>
    <route id="route_trip_4168" edges="420904618"/>
    <route id="route_trip_4169" edges="420904618"/>
    <route id="route_trip_4203" edges="1085256809"/>
    <route id="route_trip_4204" edges="1085256809"/>
    <route id="route_trip_4234" edges="1085256809"/>
    <route id="route_trip_4238" edges="46116314"/>
    <route id="route_trip_4239" edges="46116314"/>
    <route id="route_trip_4273" edges="710571392#0"/>
    <route id="route_trip_4274" edges="710571392#0"/>
    <route id="route_trip_4277" edges="710571392#0 710571392#1 710571392#2 -169381963#0 -68668557 -421851200 32947291"/>
    <route id="route_trip_4308" edges="46116314"/>
    <route id="route_trip_4309" edges="46116314"/>
    <route id="route_trip_4343" edges="451954039"/>
    <route id="route_trip_4344" edges="451954039"/>
    <route id="route_trip_4376" edges="125525171"/>
    <route id="route_trip_4378" edges="125525171"/>
    <route id="route_trip_4379" edges="125525171"/>
    <route id="route_trip_4389" edges="125525171"/>
    <route id="route_trip_4391" edges="125525171"/>
    <route id="route_trip_4399" edges="125525171"/>
    <route id="route_trip_4400" edges="125525171"/>
    <route id="route_trip_4401" edges="125525171"/>
    <route id="route_trip_4413" edges="195743264"/>
    <route id="route_trip_4414" edges="195743264"/>
    <route id="route_trip_4421" edges="195743264"/>
    <route id="route_trip_4428" edges="195743264"/>
    <route id="route_trip_4438" edges="195743264"/>
    <route id="route_trip_4448" edges="-416175739"/>
    <route id="route_trip_4449" edges="-416175739"/>
    <route id="route_trip_4480" edges="219654674"/>
    <route id="route_trip_4481" edges="125525171"/>
    <route id="route_trip_4482" edges="226041003"/>
    <route id="route_trip_4485" edges="439933945"/>
    <route id="route_trip_4486" edges="480112478#1"/>
    <route id="route_trip_4487" edges="32947291"/>
    <route id="route_trip_4488" edges="336872313"/>
    <route id="route_trip_4489" edges="381480256"/>
    <route id="route_trip_4490" edges="1057788581"/>
    <route id="route_trip_4491" edges="195743264"/>
    <route id="route_trip_4492" edges="1057788581"/>
    <route id="route_trip_4493" edges="68668522"/>
    <route id="route_trip_4494" edges="125525171"/>
    <route id="route_trip_4495" edges="336872313"/>
    <route id="route_trip_4496" edges="125525171"/>
    <route id="route_trip_4497" edges="1057788581"/>
    <route id="route_trip_4498" edges="195743264"/>
    <route id="route_trip_4499" edges="336872313"/>
    <route id="route_trip_4500" edges="336872313"/>
    <route id="route_trip_4501" edges="5672118"/>
    <route id="route_trip_4502" edges="5672118"/>
    <route id="route_trip_4503" edges="226041011"/>
    <route id="route_trip_4504" edges="125525171"/>
    <route id="route_trip_4505" edges="125525171"/>
    <route id="route_trip_4506" edges="125525171"/>
    <route id="route_trip_4507" edges="945460473"/>
    <route id="route_trip_4508" edges="195743264"/>
    <route id="route_trip_4509" edges="1061993519"/>
    <route id="route_trip_4510" edges="1061993519"/>
    <route id="route_trip_4511" edges="1061993519"/>
    <route id="route_trip_4512" edges="1061993519"/>
    <route id="route_trip_4513" edges="945460473"/>
    <route id="route_trip_4514" edges="1085256809"/>
    <route id="route_trip_4518" edges="1352944235"/>
    <route id="route_trip_4519" edges="1352944235"/>
    <route id="route_trip_4522" edges="1352944235 5673497 441405436 511924978#1 458180188 458166897#7 458166897#8 458166897#9 458166897#10 46521994 226041009 375316256 32946655 -169381963#1 -169381963#0 -68668557 -421851200 32947291"/>
    <route id="route_trip_4538" edges="1352944235 5673497 441405436 1049841322#4 1201651435#0 1201651435#1 497165756 226041011"/>
    <route id="route_trip_4550" edges="219654674"/>
    <route id="route_trip_4553" edges="219654674"/>
    <route id="route_trip_4554" edges="219654674"/>
    <route id="route_trip_4588" edges="730300445"/>
    <route id="route_trip_4589" edges="730300445"/>
    <route id="route_trip_4623" edges="195743264"/>
    <route id="route_trip_4624" edges="195743264"/>
    <route id="route_trip_4631" edges="195743264"/>
    <route id="route_trip_4638" edges="195743264"/>
    <route id="route_trip_4648" edges="195743264"/>
    <route id="route_trip_4658" edges="5670114#1"/>
    <route id="route_trip_4659" edges="5670114#1"/>
    <route id="route_trip_4693" edges="1085256809"/>
    <route id="route_trip_4694" edges="1085256809"/>
    <route id="route_trip_4724" edges="1085256809"/>
    <route id="route_trip_4728" edges="1238431028"/>
    <route id="route_trip_4729" edges="1238431028"/>
    <route id="route_trip_4763" edges="1238431028"/>
    <route id="route_trip_4764" edges="1238431028"/>
    <route id="route_trip_4798" edges="-1238431028"/>
    <route id="route_trip_4799" edges="-1238431028"/>
    <route id="route_trip_4831" edges="125525171"/>
    <route id="route_trip_4833" edges="125525171"/>
    <route id="route_trip_4834" edges="125525171"/>
    <route id="route_trip_4844" edges="125525171"/>
    <route id="route_trip_4846" edges="125525171"/>
    <route id="route_trip_4854" edges="125525171"/>
    <route id="route_trip_4855" edges="125525171"/>
    <route id="route_trip_4856" edges="125525171"/>
    <route id="route_trip_4868" edges="5678940"/>
    <route id="route_trip_4869" edges="5678940"/>
    <route id="route_trip_4903" edges="336872313"/>
    <route id="route_trip_4904" edges="336872313"/>
    <route id="route_trip_4908" edges="336872313"/>
    <route id="route_trip_4915" edges="336872313"/>
    <route id="route_trip_4919" edges="336872313"/>
    <route id="route_trip_4920" edges="336872313"/>
    <route id="route_trip_4938" edges="719009980"/>
    <route id="route_trip_4939" edges="719009980"/>
    <route id="route_trip_4973" edges="719009980"/>
    <route id="route_trip_4974" edges="719009980"/>
    <route id="route_trip_5008" edges="5678940"/>
    <route id="route_trip_5009" edges="5678940"/>
    <route id="route_trip_5043" edges="336872313"/>
    <route id="route_trip_5044" edges="336872313"/>