<?xml version="1.0" encoding="UTF-8"?>
<routes xmlns:xsi="http://www.w3.org/2001/XMLSchema-instance" xsi:noNamespaceSchemaLocation="http://sumo.dlr.de/xsd/routes_file.xsd">
    <trip id="trip_0" depart="0" fromLonLat="-73.9625,40.74377" toLonLat="-73.95604,40.74158" departPos="random" departSpeed="max" departLane="best">
        <param key="weight" value="1800"/>
    </trip>
    <trip id="trip_1" depart="0" fromLonLat="-73.9625,40.74377" toLonLat="-73.99219,40.7109" departPos="random" departSpeed="max" departLane="best">
        <param key="weight" value="1755"/>
    </trip>
    <trip id="trip_2" depart="0" fromLonLat="-73.9625,40.74377" toLonLat="-73.97093,40.74725" departPos="random" departSpeed="max" departLane="best">
        <param key="weight" value="1530"/>
    </trip>
    <trip id="trip_3" depart="0" fromLonLat="-73.9625,40.74377" toLonLat="-73.94913,40.75449" departPos="random" departSpeed="max" departLane="best">
        <param key="weight" value="1485"/>
    </trip>
    <trip id="trip_4" depart="0" fromLonLat="-73.9625,40.74377" toLonLat="-74.00702,40.72951" departPos="random" departSpeed="max" departLane="best">
        <param key="weight" value="1260"/>
    </trip>
    <trip id="trip_5" depart="0" fromLonLat="-73.9625,40.74377" toLonLat="-74.00955,40.73534" departPos="random" departSpeed="max" departLane="best">
        <param key="weight" value="1260"/>
    </trip>
    <trip id="trip_6" depart="0" fromLonLat="-73.9625,40.74377" toLonLat="-73.96447,40.759" departPos="random" departSpeed="max" departLane="best">
        <param key="weight" value="1215"/>
    </trip>
    <trip id="trip_7" depart="0" fromLonLat="-73.9625,40.74377" toLonLat="-74.00401,40.75995" departPos="random" departSpeed="max" departLane="best">
        <param key="weight" value="1215"/>
    </trip>
    <trip id="trip_8" depart="0" fromLonLat="-73.9625,40.74377" toLonLat="-74.03375,40.73738" departPos="random" departSpeed="max" departLane="best">
        <param key="weight" value="810"/>
    </trip>
    <trip id="trip_9" depart="0" fromLonLat="-73.9625,40.74377" toLonLat="-74.01465,40.71108" departPos="random" departSpeed="max" departLane="best">
        <param key="weight" value="675"/>
    </trip>
    <trip id="trip_10" depart="0" fromLonLat="-73.9625,40.74377" toLonLat="-73.97422,40.75974" departPos="random" departSpeed="max" departLane="best">
        <param key="weight" value="135"/>
    </trip>
    <trip id="trip_11" depart="0" fromLonLat="-73.9625,40.74377" toLonLat="-73.99607,40.75883" departPos="random" departSpeed="max" departLane="best">
        <param key="weight" value="135"/>
    </trip>
    <trip id="trip_12" depart="0" fromLonLat="-73.9625,40.74377" toLonLat="-74.0072,40.71306" departPos="random" departSpeed="max" departLane="best">
        <param key="weight" value="135"/>
    </trip>
    <trip id="trip_13" depart="0" fromLonLat="-73.9625,40.74377" toLonLat="-74.0281,40.75887" departPos="random" departSpeed="max" departLane="best">
        <param key="weight" value="90"/>
    </trip>
    <trip id="trip_14" depart="0" fromLonLat="-73.95438,40.71254" toLonLat="-73.95604,40.74158" departPos="random" departSpeed="max" departLane="best">
        <param key="weight" value="1640"/>
    </trip>
    <trip id="trip_15" depart="0" fromLonLat="-73.95438,40.71254" toLonLat="-73.99219,40.7109" departPos="random" departSpeed="max" departLane="best">
        <param key="weight" value="1599"/>
    </trip>
    <trip id="trip_16" depart="0" fromLonLat="-73.95438,40.71254" toLonLat="-73.97093,40.74725" departPos="random" departSpeed="max" departLane="best">
        <param key="weight" value="1394"/>
    </trip>
    <trip id="trip_17" depart="0" fromLonLat="-73.95438,40.71254" toLonLat="-73.94913,40.75449" departPos="random" departSpeed="max" departLane="best">
        <param key="weight" value="1353"/>
    </trip>
    <trip id="trip_18" depart="0" fromLonLat="-73.95438,40.71254" toLonLat="-74.00702,40.72951" departPos="random" departSpeed="max" departLane="best">
        <param key="weight" value="1148"/>
    </trip>
    <trip id="trip_19" depart="0" fromLonLat="-73.95438,40.71254" toLonLat="-74.00955,40.73534" departPos="random" departSpeed="max" departLane="best">
        <param key="weight" value="1148"/>
    </trip>
    <trip id="trip_20" depart="0" fromLonLat="-73.95438,40.71254" toLonLat="-73.96447,40.759" departPos="random" departSpeed="max" departLane="best">
        <param key="weight" value="1107"/>
    </trip>
    <trip id="trip_21" depart="0" fromLonLat="-73.95438,40.71254" toLonLat="-74.00401,40.75995" departPos="random" departSpeed="max" departLane="best">
        <param key="weight" value="1107"/>
    </trip>
    <trip id="trip_22" depart="0" fromLonLat="-73.95438,40.71254" toLonLat="-74.03375,40.73738" departPos="random" departSpeed="max" departLane="best">
        <param key="weight" value="738"/>
    </trip>
    <trip id="trip_23" depart="0" fromLonLat="-73.95438,40.71254" toLonLat="-74.01465,40.71108" departPos="random" departSpeed="max" departLane="best">
        <param key="weight" value="615"/>
    </trip>
    <trip id="trip_24" depart="0" fromLonLat="-73.95438,40.71254" toLonLat="-73.97422,40.75974" departPos="random" departSpeed="max" departLane="best">
        <param key="weight" value="123"/>
    </trip>
    <trip id="trip_25" depart="0" fromLonLat="-73.95438,40.71254" toLonLat="-73.99607,40.75883" departPos="random" departSpeed="max" departLane="best">
        <param key="weight" value="123"/>
    </trip>
    <trip id="trip_26" depart="0" fromLonLat="-73.95438,40.71254" toLonLat="-74.0072,40.71306" departPos="random" departSpeed="max" departLane="best">
        <param key="weight" value="123"/>
    </trip>
    <trip id="trip_27" depart="0" fromLonLat="-73.95438,40.71254" toLonLat="-74.0281,40.75887" departPos="random" departSpeed="max" departLane="best">
        <param key="weight" value="82"/>
    </trip>
    <trip id="trip_28" depart="0" fromLonLat="-73.95531,40.74147" toLonLat="-73.95604,40.74158" departPos="random" departSpeed="max" departLane="best">
        <param key="weight" value="1600"/>
    </trip>
    <trip id="trip_29" depart="0" fromLonLat="-73.95531,40.74147" toLonLat="-73.99219,40.7109" departPos="random" departSpeed="max" departLane="best">
        <param key="weight" value="1560"/>
    </trip>
    <trip id="trip_30" depart="0" fromLonLat="-73.95531,40.74147" toLonLat="-73.97093,40.74725" departPos="random" departSpeed="max" departLane="best">
        <param key="weight" value="1360"/>
    </trip>
    <trip id="trip_31" depart="0" fromLonLat="-73.95531,40.74147" toLonLat="-73.94913,40.75449" departPos="random" departSpeed="max" departLane="best">
        <param key="weight" value="1320"/>
    </trip>
    <trip id="trip_32" depart="0" fromLonLat="-73.95531,40.74147" toLonLat="-74.00702,40.72951" departPos="random" departSpeed="max" departLane="best">
        <param key="weight" value="1120"/>
    </trip>
    <trip id="trip_33" depart="0" fromLonLat="-73.95531,40.74147" toLonLat="-74.00955,40.73534" departPos="random" departSpeed="max" departLane="best">
        <param key="weight" value="1120"/>
    </trip>
    <trip id="trip_34" depart="0" fromLonLat="-73.95531,40.74147" toLonLat="-73.96447,40.759" departPos="random" departSpeed="max" departLane="best">
        <param key="weight" value="1080"/>
    </trip>
    <trip id="trip_35" depart="0" fromLonLat="-73.95531,40.74147" toLonLat="-74.00401,40.75995" departPos="random" departSpeed="max" departLane="best">
        <param key="weight" value="1080"/>
    </trip>
    <trip id="trip_36" depart="0" fromLonLat="-73.95531,40.74147" toLonLat="-74.03375,40.73738" departPos="random" departSpeed="max" departLane="best">
        <param key="weight" value="720"/>
    </trip>
    <trip id="trip_37" depart="0" fromLonLat="-73.95531,40.74147" toLonLat="-74.01465,40.71108" departPos="random" departSpeed="max" departLane="best">
        <param key="weight" value="600"/>
    </trip>
    <trip id="trip_38" depart="0" fromLonLat="-73.95531,40.74147" toLonLat="-73.97422,40.75974" departPos="random" departSpeed="max" departLane="best">
        <param key="weight" value="120"/>
    </trip>
    <trip id="trip_39" depart="0" fromLonLat="-73.95531,40.74147" toLonLat="-73.99607,40.75883" departPos="random" departSpeed="max" departLane="best">
        <param key="weight" value="120"/>
    </trip>
    <trip id="trip_40" depart="0" fromLonLat="-73.95531,40.74147" toLonLat="-74.0072,40.71306" departPos="random" departSpeed="max" departLane="best">
        <param key="weight" value="120"/>
    </trip>
    <trip id="trip_41" depart="0" fromLonLat="-73.95531,40.74147" toLonLat="-74.0281,40.75887" departPos="random" departSpeed="max" departLane="best">
        <param key="weight" value="80"/>
    </trip>
    <trip id="trip_42" depart="0" fromLonLat="-73.97093,40.74725" toLonLat="-73.95604,40.74158" departPos="random" departSpeed="max" departLane="best">
        <param key="weight" value="1360"/>
    </trip>
    <trip id="trip_43" depart="0" fromLonLat="-73.97093,40.74725" toLonLat="-73.99219,40.7109" departPos="random" departSpeed="max" departLane="best">
        <param key="weight" value="1326"/>
    </trip>
    <trip id="trip_44" depart="0" fromLonLat="-73.97093,40.74725" toLonLat="-73.97093,40.74725" departPos="random" departSpeed="max" departLane="best">
        <param key="weight" value="1156"/>
    </trip>
    <trip id="trip_45" depart="0" fromLonLat="-73.97093,40.74725" toLonLat="-73.94913,40.75449" departPos="random" departSpeed="max" departLane="best">
        <param key="weight" value="1122"/>
    </trip>
    <trip id="trip_46" depart="0" fromLonLat="-73.97093,40.74725" toLonLat="-74.00702,40.72951" departPos="random" departSpeed="max" departLane="best">
        <param key="weight" value="952"/>
    </trip>
    <trip id="trip_47" depart="0" fromLonLat="-73.97093,40.74725" toLonLat="-74.00955,40.73534" departPos="random" departSpeed="max" departLane="best">
        <param key="weight" value="952"/>
    </trip>
    <trip id="trip_48" depart="0" fromLonLat="-73.97093,40.74725" toLonLat="-73.96447,40.759" departPos="random" departSpeed="max" departLane="best">
        <param key="weight" value="918"/>
    </trip>
    <trip id="trip_49" depart="0" fromLonLat="-73.97093,40.74725" toLonLat="-74.00401,40.75995" departPos="random" departSpeed="max" departLane="best">
        <param key="weight" value="918"/>
    </trip>
    <trip id="trip_50" depart="0" fromLonLat="-73.97093,40.74725" toLonLat="-74.03375,40.73738" departPos="random" departSpeed="max" departLane="best">
        <param key="weight" value="612"/>
    </trip>
    <trip id="trip_51" depart="0" fromLonLat="-73.97093,40.74725" toLonLat="-74.01465,40.71108" departPos="random" departSpeed="max" departLane="best">
        <param key="weight" value="510"/>
    </trip>
    <trip id="trip_52" depart="0" fromLonLat="-73.97093,40.74725" toLonLat="-73.97422,40.75974" departPos="random" departSpeed="max" departLane="best">
        <param key="weight" value="102"/>
    </trip>
    <trip id="trip_53" depart="0" fromLonLat="-73.97093,40.74725" toLonLat="-73.99607,40.75883" departPos="random" departSpeed="max" departLane="best">
        <param key="weight" value="102"/>
    </trip>
    <trip id="trip_54" depart="0" fromLonLat="-73.97093,40.74725" toLonLat="-74.0072,40.71306" departPos="random" departSpeed="max" departLane="best">
        <param key="weight" value="102"/>
    </trip>
    <trip id="trip_55" depart="0" fromLonLat="-73.97093,40.74725" toLonLat="-74.0281,40.75887" departPos="random" departSpeed="max" departLane="best">
        <param key="weight" value="68"/>
    </trip>
    <trip id="trip_56" depart="0" fromLonLat="-74.00187,40.75964" toLonLat="-73.95604,40.74158" departPos="random" departSpeed="max" departLane="best">
        <param key="weight" value="1320"/>
    </trip>
    <trip id="trip_57" depart="0" fromLonLat="-74.00187,40.75964" toLonLat="-73.99219,40.7109" departPos="random" departSpeed="max" departLane="best">
        <param key="weight" value="1287"/>
    </trip>
    <trip id="trip_58" depart="0" fromLonLat="-74.00187,40.75964" toLonLat="-73.97093,40.74725" departPos="random" departSpeed="max" departLane="best">
        <param key="weight" value="1122"/>
    </trip>
    <trip id="trip_59" depart="0" fromLonLat="-74.00187,40.75964" toLonLat="-73.94913,40.75449" departPos="random" departSpeed="max" departLane="best">
        <param key="weight" value="1089"/>
    </trip>
    <trip id="trip_60" depart="0" fromLonLat="-74.00187,40.75964" toLonLat="-74.00702,40.72951" departPos="random" departSpeed="max" departLane="best">
        <param key="weight" value="924"/>
    </trip>
    <trip id="trip_61" depart="0" fromLonLat="-74.00187,40.75964" toLonLat="-74.00955,40.73534" departPos="random" departSpeed="max" departLane="best">
        <param key="weight" value="924"/>
    </trip>
    <trip id="trip_62" depart="0" fromLonLat="-74.00187,40.75964" toLonLat="-73.96447,40.759" departPos="random" departSpeed="max" departLane="best">
        <param key="weight" value="891"/>
    </trip>
    <trip id="trip_63" depart="0" fromLonLat="-74.00187,40.75964" toLonLat="-74.00401,40.75995" departPos="random" departSpeed="max" departLane="best">
        <param key="weight" value="891"/>
    </trip>
    <trip id="trip_64" depart="0" fromLonLat="-74.00187,40.75964" toLonLat="-74.03375,40.73738" departPos="random" departSpeed="max" departLane="best">
        <param key="weight" value="594"/>
    </trip>
    <trip id="trip_65" depart="0" fromLonLat="-74.00187,40.75964" toLonLat="-74.01465,40.71108" departPos="random" departSpeed="max" departLane="best">
        <param key="weight" value="495"/>
    </trip>
    <trip id="trip_66" depart="0" fromLonLat="-74.00187,40.75964" toLonLat="-73.97422,40.75974" departPos="random" departSpeed="max" departLane="best">
        <param key="weight" value="99"/>
    </trip>
    <trip id="trip_67" depart="0" fromLonLat="-74.00187,40.75964" toLonLat="-73.99607,40.75883" departPos="random" departSpeed="max" departLane="best">
        <param key="weight" value="99"/>
    </trip>
    <trip id="trip_68" depart="0" fromLonLat="-74.00187,40.75964" toLonLat="-74.0072,40.71306" departPos="random" departSpeed="max" departLane="best">
        <param key="weight" value="99"/>
    </trip>
    <trip id="trip_69" depart="0" fromLonLat="-74.00187,40.75964" toLonLat="-74.0281,40.75887" departPos="random" departSpeed="max" departLane="best">
        <param key="weight" value="66"/>
    </trip>
    <trip id="trip_70" depart="0" fromLonLat="-73.97659,40.73607" toLonLat="-73.95604,40.74158" departPos="random" departSpeed="max" departLane="best">
        <param key="weight" value="1000"/>
    </trip>
    <trip id="trip_71" depart="0" fromLonLat="-73.97659,40.73607" toLonLat="-73.99219,40.7109" departPos="random" departSpeed="max" departLane="best">
        <param key="weight" value="975"/>
    </trip>
    <trip id="trip_72" depart="0" fromLonLat="-73.97659,40.73607" toLonLat="-73.97093,40.74725" departPos="random" departSpeed="max" departLane="best">
        <param key="weight" value="850"/>
    </trip>
    <trip id="trip_73" depart="0" fromLonLat="-73.97659,40.73607" toLonLat="-73.94913,40.75449" departPos="random" departSpeed="max" departLane="best">
        <param key="weight" value="825"/>
    </trip>
    <trip id="trip_74" depart="0" fromLonLat="-73.97659,40.73607" toLonLat="-74.00702,40.72951" departPos="random" departSpeed="max" departLane="best">
        <param key="weight" value="700"/>
    </trip>
    <trip id="trip_75" depart="0" fromLonLat="-73.97659,40.73607" toLonLat="-74.00955,40.73534" departPos="random" departSpeed="max" departLane="best">
        <param key="weight" value="700"/>
    </trip>
    <trip id="trip_76" depart="0" fromLonLat="-73.97659,40.73607" toLonLat="-73.96447,40.759" departPos="random" departSpeed="max" departLane="best">
        <param key="weight" value="675"/>
    </trip>
    <trip id="trip_77" depart="0" fromLonLat="-73.97659,40.73607" toLonLat="-74.00401,40.75995" departPos="random" departSpeed="max" departLane="best">
        <param key="weight" value="675"/>
    </trip>
    <trip id="trip_78" depart="0" fromLonLat="-73.97659,40.73607" toLonLat="-74.03375,40.73738" departPos="random" departSpeed="max" departLane="best">
        <param key="weight" value="450"/>
    </trip>
    <trip id="trip_79" depart="0" fromLonLat="-73.97659,40.73607" toLonLat="-74.01465,40.71108" departPos="random" departSpeed="max" departLane="best">
        <param key="weight" value="375"/>
    </trip>
    <trip id="trip_80" depart="0" fromLonLat="-73.97659,40.73607" toLonLat="-73.97422,40.75974" departPos="random" departSpeed="max" departLane="best">
        <param key="weight" value="75"/>
    </trip>
    <trip id="trip_81" depart="0" fromLonLat="-73.97659,40.73607" toLonLat="-73.99607,40.75883" departPos="random" departSpeed="max" departLane="best">
        <param key="weight" value="75"/>
    </trip>
    <trip id="trip_82" depart="0" fromLonLat="-73.97659,40.73607" toLonLat="-74.0072,40.71306" departPos="random" departSpeed="max" departLane="best">
        <param key="weight" value="75"/>
    </trip>
    <trip id="trip_83" depart="0" fromLonLat="-73.97659,40.73607" toLonLat="-74.0281,40.75887" departPos="random" departSpeed="max" departLane="best">
        <param key="weight" value="50"/>
    </trip>
    <trip id="trip_84" depart="0" fromLonLat="-73.9853,40.75622" toLonLat="-73.95604,40.74158" departPos="random" departSpeed="max" departLane="best">
        <param key="weight" value="920"/>
    </trip>
    <trip id="trip_85" depart="0" fromLonLat="-73.9853,40.75622" toLonLat="-73.99219,40.7109" departPos="random" departSpeed="max" departLane="best">
        <param key="weight" value="897"/>
    </trip>
    <trip id="trip_86" depart="0" fromLonLat="-73.9853,40.75622" toLonLat="-73.97093,40.74725" departPos="random" departSpeed="max" departLane="best">
        <param key="weight" value="782"/>
    </trip>
    <trip id="trip_87" depart="0" fromLonLat="-73.9853,40.75622" toLonLat="-73.94913,40.75449" departPos="random" departSpeed="max" departLane="best">
        <param key="weight" value="759"/>
    </trip>
    <trip id="trip_88" depart="0" fromLonLat="-73.9853,40.75622" toLonLat="-74.00702,40.72951" departPos="random" departSpeed="max" departLane="best">
        <param key="weight" value="644"/>
    </trip>
    <trip id="trip_89" depart="0" fromLonLat="-73.9853,40.75622" toLonLat="-74.00955,40.73534" departPos="random" departSpeed="max" departLane="best">
        <param key="weight" value="644"/>
    </trip>
    <trip id="trip_90" depart="0" fromLonLat="-73.9853,40.75622" toLonLat="-73.96447,40.759" departPos="random" departSpeed="max" departLane="best">
        <param key="weight" value="621"/>
    </trip>
    <trip id="trip_91" depart="0" fromLonLat="-73.9853,40.75622" toLonLat="-74.00401,40.75995" departPos="random" departSpeed="max" departLane="best">
        <param key="weight" value="621"/>
    </trip>
    <trip id="trip_92" depart="0" fromLonLat="-73.9853,40.75622" toLonLat="-74.03375,40.73738" departPos="random" departSpeed="max" departLane="best">
        <param key="weight" value="414"/>
    </trip>
    <trip id="trip_93" depart="0" fromLonLat="-73.9853,40.75622" toLonLat="-74.01465,40.71108" departPos="random" departSpeed="max" departLane="best">
        <param key="weight" value="345"/>
    </trip>
    <trip id="trip_94" depart="0" fromLonLat="-73.9853,40.75622" toLonLat="-73.97422,40.75974" departPos="random" departSpeed="max" departLane="best">
        <param key="weight" value="69"/>
    </trip>
    <trip id="trip_95" depart="0" fromLonLat="-73.9853,40.75622" toLonLat="-73.99607,40.75883" departPos="random" departSpeed="max" departLane="best">
        <param key="weight" value="69"/>
    </trip>
    <trip id="trip_96" depart="0" fromLonLat="-73.9853,40.75622" toLonLat="-74.0072,40.71306" departPos="random" departSpeed="max" departLane="best">
        <param key="weight" value="69"/>
    </trip>
    <trip id="trip_97" depart="0" fromLonLat="-73.9853,40.75622" toLonLat="-74.0281,40.75887" departPos="random" departSpeed="max" departLane="best">
        <param key="weight" value="46"/>
    </trip>
    <trip id="trip_98" depart="0" fromLonLat="-74.01465,40.71108" toLonLat="-73.95604,40.74158" departPos="random" departSpeed="max" departLane="best">
        <param key="weight" value="880"/>
    </trip>
    <trip id="trip_99" depart="0" fromLonLat="-74.01465,40.71108" toLonLat="-73.99219,40.7109" departPos="random" departSpeed="max" departLane="best">
        <param key="weight" value="858"/>
    </trip>
    <trip id="trip_100" depart="0" fromLonLat="-74.01465,40.71108" toLonLat="-73.97093,40.74725" departPos="random" departSpeed="max" departLane="best">
        <param key="weight" value="748"/>
    </trip>
    <trip id="trip_101" depart="0" fromLonLat="-74.01465,40.71108" toLonLat="-73.94913,40.75449" departPos="random" departSpeed="max" departLane="best">
        <param key="weight" value="726"/>
    </trip>
    <trip id="trip_102" depart="0" fromLonLat="-74.01465,40.71108" toLonLat="-74.00702,40.72951" departPos="random" departSpeed="max" departLane="best">
        <param key="weight" value="616"/>
    </trip>
    <trip id="trip_103" depart="0" fromLonLat="-74.01465,40.71108" toLonLat="-74.00955,40.73534" departPos="random" departSpeed="max" departLane="best">
        <param key="weight" value="616"/>
    </trip>
    <trip id="trip_104" depart="0" fromLonLat="-74.01465,40.71108" toLonLat="-73.96447,40.759" departPos="random" departSpeed="max" departLane="best">
        <param key="weight" value="594"/>
    </trip>
    <trip id="trip_105" depart="0" fromLonLat="-74.01465,40.71108" toLonLat="-74.00401,40.75995" departPos="random" departSpeed="max" departLane="best">
        <param key="weight" value="594"/>
    </trip>
    <trip id="trip_106" depart="0" fromLonLat="-74.01465,40.71108" toLonLat="-74.03375,40.73738" departPos="random" departSpeed="max" departLane="best">
        <param key="weight" value="396"/>
    </trip>
    <trip id="trip_107" depart="0" fromLonLat="-74.01465,40.71108" toLonLat="-74.01465,40.71108" departPos="random" departSpeed="max" departLane="best">
        <param key="weight" value="330"/>
    </trip>
    <trip id="trip_108" depart="0" fromLonLat="-74.01465,40.71108" toLonLat="-73.97422,40.75974" departPos="random" departSpeed="max" departLane="best">
        <param key="weight" value="66"/>
    </trip>
    <trip id="trip_109" depart="0" fromLonLat="-74.01465,40.71108" toLonLat="-73.99607,40.75883" departPos="random" departSpeed="max" departLane="best">
        <param key="weight" value="66"/>
    </trip>
    <trip id="trip_110" depart="0" fromLonLat="-74.01465,40.71108" toLonLat="-74.0072,40.71306" departPos="random" departSpeed="max" departLane="best">
        <param key="weight" value="66"/>
    </trip>
    <trip id="trip_111" depart="0" fromLonLat="-74.01465,40.71108" toLonLat="-74.0281,40.75887" departPos="random" departSpeed="max" departLane="best">
        <param key="weight" value="44"/>
    </trip>
    <trip id="trip_112" depart="0" fromLonLat="-73.98566,40.71793" toLonLat="-73.95604,40.74158" departPos="random" departSpeed="max" departLane="best">
        <param key="weight" value="840"/>
    </trip>
    <trip id="trip_113" depart="0" fromLonLat="-73.98566,40.71793" toLonLat="-73.99219,40.7109" departPos="random" departSpeed="max" departLane="best">
        <param key="weight" value="819"/>
    </trip>
    <trip id="trip_114" depart="0" fromLonLat="-73.98566,40.71793" toLonLat="-73.97093,40.74725" departPos="random" departSpeed="max" departLane="best">
        <param key="weight" value="714"/>
    </trip>
    <trip id="trip_115" depart="0" fromLonLat="-73.98566,40.71793" toLonLat="-73.94913,40.75449" departPos="random" departSpeed="max" departLane="best">
        <param key="weight" value="693"/>
    </trip>
    <trip id="trip_116" depart="0" fromLonLat="-73.98566,40.71793" toLonLat="-74.00702,40.72951" departPos="random" departSpeed="max" departLane="best">
        <param key="weight" value="588"/>
    </trip>
    <trip id="trip_117" depart="0" fromLonLat="-73.98566,40.71793" toLonLat="-74.00955,40.73534" departPos="random" departSpeed="max" departLane="best">
        <param key="weight" value="588"/>
    </trip>
    <trip id="trip_118" depart="0" fromLonLat="-73.98566,40.71793" toLonLat="-73.96447,40.759" departPos="random" departSpeed="max" departLane="best">
        <param key="weight" value="567"/>
    </trip>
    <trip id="trip_119" depart="0" fromLonLat="-73.98566,40.71793" toLonLat="-74.00401,40.75995" departPos="random" departSpeed="max" departLane="best">
        <param key="weight" value="567"/>
    </trip>
    <trip id="trip_120" depart="0" fromLonLat="-73.98566,40.71793" toLonLat="-74.03375,40.73738" departPos="random" departSpeed="max" departLane="best">
        <param key="weight" value="378"/>
    </trip>
    <trip id="trip_121" depart="0" fromLonLat="-73.98566,40.71793" toLonLat="-74.01465,40.71108" departPos="random" departSpeed="max" departLane="best">
        <param key="weight" value="315"/>
    </trip>
    <trip id="trip_122" depart="0" fromLonLat="-73.98566,40.71793" toLonLat="-73.97422,40.75974" departPos="random" departSpeed="max" departLane="best">
        <param key="weight" value="63"/>
    </trip>
    <trip id="trip_123" depart="0" fromLonLat="-73.98566,40.71793" toLonLat="-73.99607,40.75883" departPos="random" departSpeed="max" departLane="best">
        <param key="weight" value="63"/>
    </trip>
    <trip id="trip_124" depart="0" fromLonLat="-73.98566,40.71793" toLonLat="-74.0072,40.71306" departPos="random" departSpeed="max" departLane="best">
        <param key="weight" value="63"/>
    </trip>
    <trip id="trip_125" depart="0" fromLonLat="-73.98566,40.71793" toLonLat="-74.0281,40.75887" departPos="random" departSpeed="max" departLane="best">
        <param key="weight" value="42"/>
    </trip>
    <trip id="trip_126" depart="0" fromLonLat="-73.99743,40.74164" toLonLat="-73.95604,40.74158" departPos="random" departSpeed="max" departLane="best">
        <param key="weight" value="720"/>
    </trip>
    <trip id="trip_127" depart="0" fromLonLat="-73.99743,40.74164" toLonLat="-73.99219,40.7109" departPos="random" departSpeed="max" departLane="best">
        <param key="weight" value="702"/>
    </trip>
    <trip id="trip_128" depart="0" fromLonLat="-73.99743,40.74164" toLonLat="-73.97093,40.74725" departPos="random" departSpeed="max" departLane="best">
        <param key="weight" value="612"/>
    </trip>
    <trip id="trip_129" depart="0" fromLonLat="-73.99743,40.74164" toLonLat="-73.94913,40.75449" departPos="random" departSpeed="max" departLane="best">
        <param key="weight" value="594"/>
    </trip>
    <trip id="trip_130" depart="0" fromLonLat="-73.99743,40.74164" toLonLat="-74.00702,40.72951" departPos="random" departSpeed="max" departLane="best">
        <param key="weight" value="504"/>
    </trip>
    <trip id="trip_131" depart="0" fromLonLat="-73.99743,40.74164" toLonLat="-74.00955,40.73534" departPos="random" departSpeed="max" departLane="best">
        <param key="weight" value="504"/>
    </trip>
    <trip id="trip_132" depart="0" fromLonLat="-73.99743,40.74164" toLonLat="-73.96447,40.759" departPos="random" departSpeed="max" departLane="best">
        <param key="weight" value="486"/>
    </trip>
    <trip id="trip_133" depart="0" fromLonLat="-73.99743,40.74164" toLonLat="-74.00401,40.75995" departPos="random" departSpeed="max" departLane="best">
        <param key="weight" value="486"/>
    </trip>
    <trip id="trip_134" depart="0" fromLonLat="-73.99743,40.74164" toLonLat="-74.03375,40.73738" departPos="random" departSpeed="max" departLane="best">
        <param key="weight" value="324"/>
    </trip>
    <trip id="trip_135" depart="0" fromLonLat="-73.99743,40.74164" toLonLat="-74.01465,40.71108" departPos="random" departSpeed="max" departLane="best">
        <param key="weight" value="270"/>
    </trip>
    <trip id="trip_136" depart="0" fromLonLat="-73.99743,40.74164" toLonLat="-73.97422,40.75974" departPos="random" departSpeed="max" departLane="best">
        <param key="weight" value="54"/>
    </trip>
    <trip id="trip_137" depart="0" fromLonLat="-73.99743,40.74164" toLonLat="-73.99607,40.75883" departPos="random" departSpeed="max" departLane="best">
        <param key="weight" value="54"/>
    </trip>
    <trip id="trip_138" depart="0" fromLonLat="-73.99743,40.74164" toLonLat="-74.0072,40.71306" departPos="random" departSpeed="max" departLane="best">
        <param key="weight" value="54"/>
    </trip>
    <trip id="trip_139" depart="0" fromLonLat="-73.99743,40.74164" toLonLat="-74.0281,40.75887" departPos="random" departSpeed="max" departLane="best">
        <param key="weight" value="36"/>
    </trip>
    <trip id="trip_140" depart="0" fromLonLat="-74.02851,40.75759" toLonLat="-73.95604,40.74158" departPos="random" departSpeed="max" departLane="best">
        <param key="weight" value="680"/>
    </trip>
    <trip id="trip_141" depart="0" fromLonLat="-74.02851,40.75759" toLonLat="-73.99219,40.7109" departPos="random" departSpeed="max" departLane="best">
        <param key="weight" value="663"/>
    </trip>
    <trip id="trip_142" depart="0" fromLonLat="-74.02851,40.75759" toLonLat="-73.97093,40.74725" departPos="random" departSpeed="max" departLane="best">
        <param key="weight" value="578"/>
    </trip>
    <trip id="trip_143" depart="0" fromLonLat="-74.02851,40.75759" toLonLat="-73.94913,40.75449" departPos="random" departSpeed="max" departLane="best">
        <param key="weight" value="561"/>
    </trip>
    <trip id="trip_144" depart="0" fromLonLat="-74.02851,40.75759" toLonLat="-74.00702,40.72951" departPos="random" departSpeed="max" departLane="best">
        <param key="weight" value="476"/>