<?xml version="1.0" encoding="UTF-8"?>
<additional xmlns:xsi="http://www.w3.org/2001/XMLSchema-instance" xsi:noNamespaceSchemaLocation="http://sumo.dlr.de/xsd/additional_file.xsd">
    <interval begin="3214.0" end="3574.0">
        <edgeData id="165777951#0" speed="0.98"/>
        <edgeData id="5670594#0" speed="0.54"/>
        <edgeData id="439933948#2" speed="1.16"/>
        <edgeData id="433124996" speed="1.16"/>
        <edgeData id="970704072" speed="1.08"/>
        <edgeData id="195743229" speed="1.69"/>
        <edgeData id="127693103#0" speed="1.62"/>
        <edgeData id="5672464" speed="2.47"/>
        <edgeData id="127693103#1" speed="1.85"/>
        <edgeData id="464516471#0" speed="1.04"/>
        <edgeData id="464516471#1" speed="0.96"/>
        <edgeData id="46522000" speed="0.62"/>
        <edgeData id="464516471#3" speed="1.87"/>
        <edgeData id="464516471#4" speed="2.17"/>
        <edgeData id="5670114#1" speed="1.07"/>
        <edgeData id="-659714535" speed="0.99"/>
        <edgeData id="-68668522" speed="1.31"/>
        <edgeData id="1007629838" speed="2.26"/>
        <edgeData id="27523630" speed="1.57"/>
        <edgeData id="222857308" speed="1.65"/>
        <edgeData id="-222857308" speed="1.20"/>
        <edgeData id="413050334" speed="1.81"/>
        <edgeData id="1362576631" speed="1.89"/>
        <edgeData id="1334995999" speed="1.99"/>
        <edgeData id="222299272" speed="1.89"/>
        <edgeData id="222299254" speed="1.97"/>
        <edgeData id="483707770" speed="1.43"/>
        <edgeData id="-416175739" speed="0.85"/>
        <edgeData id="-1137754254" speed="1.22"/>
        <edgeData id="1137754254" speed="0.91"/>
        <edgeData id="381480256" speed="1.98"/>
        <edgeData id="221687794" speed="0.83"/>
        <edgeData id="1156474000" speed="0.77"/>
        <edgeData id="40709928#1" speed="1.58"/>
        <edgeData id="5669892#0" speed="0.68"/>
        <edgeData id="945167874" speed="2.11"/>
        <edgeData id="541329572" speed="1.15"/>
        <edgeData id="46334602#1" speed="0.86"/>
        <edgeData id="-196117075#2" speed="1.49"/>
        <edgeData id="68325062" speed="1.97"/>
        <edgeData id="846035644#0" speed="2.01"/>
        <edgeData id="814612602#9" speed="1.31"/>
        <edgeData id="221157083" speed="3.16"/>
        <edgeData id="1316299824" speed="1.72"/>
        <edgeData id="1051841855" speed="0.81"/>
        <edgeData id="847994494" speed="1.08"/>
        <edgeData id="388240124#0" speed="1.47"/>
        <edgeData id="388240124#1" speed="1.50"/>
        <edgeData id="388240124#2" speed="2.02"/>
        <edgeData id="385668565" speed="1.51"/>
        <edgeData id="540356239#1" speed="0.96"/>
        <edgeData id="-542096278" speed="1.17"/>
        <edgeData id="1021949727" speed="4.32"/>
        <edgeData id="479642040" speed="2.70"/>
        <edgeData id="46608205#0" speed="1.08"/>
        <edgeData id="-591772210#3" speed="2.31"/>
        <edgeData id="591772210#1" speed="1.70"/>
        <edgeData id="5672922#0" speed="1.16"/>
        <edgeData id="1189567313#0" speed="0.69"/>
        <edgeData id="-39662323#1" speed="0.58"/>
        <edgeData id="-39662323#0" speed="0.89"/>
        <edgeData id="39956203" speed="1.04"/>
        <edgeData id="5669806#0" speed="1.42"/>
        <edgeData id="5669806#1" speed="1.54"/>
        <edgeData id="22909031" speed="2.91"/>
        <edgeData id="-22909031" speed="2.97"/>
        <edgeData id="473884145" speed="1.08"/>
        <edgeData id="95181768#0" speed="0.83"/>
        <edgeData id="95181768#1" speed="1.59"/>
        <edgeData id="196116974" speed="1.22"/>
        <edgeData id="226193933#0" speed="1.00"/>
        <edgeData id="439842835#0" speed="1.00"/>
        <edgeData id="991205022" speed="1.84"/>
        <edgeData id="342785522" speed="1.24"/>
        <edgeData id="195743179#1" speed="1.70"/>
        <edgeData id="682359868" speed="1.08"/>
        <edgeData id="-682359868" speed="0.81"/>
        <edgeData id="46518731" speed="0.69"/>
        <edgeData id="420901690" speed="4.94"/>
        <edgeData id="226041000" speed="1.99"/>
        <edgeData id="729972918" speed="1.50"/>
        <edgeData id="458177133#0" speed="1.77"/>
        <edgeData id="68674961#3" speed="1.30"/>
        <edgeData id="226041004" speed="1.39"/>
        <edgeData id="195743182#2" speed="1.06"/>
        <edgeData id="438385431#2" speed="1.81"/>
        <edgeData id="1238545752" speed="0.92"/>
        <edgeData id="43203195" speed="1.16"/>
        <edgeData id="1238431028" speed="1.12"/>
        <edgeData id="-1238431028" speed="1.74"/>
        <edgeData id="379843702" speed="1.50"/>
        <edgeData id="1030123275" speed="0.81"/>
        <edgeData id="421827961" speed="1.02"/>
        <edgeData id="1156475401" speed="1.85"/>
        <edgeData id="5671920#1" speed="2.12"/>
        <edgeData id="110542345" speed="0.71"/>
        <edgeData id="847931436#0" speed="1.77"/>
        <edgeData id="5670092#3" speed="0.96"/>
        <edgeData id="188559800#4" speed="1.77"/>
        <edgeData id="112116234" speed="1.66"/>
        <edgeData id="127693200#0" speed="0.67"/>
        <edgeData id="616745175" speed="2.48"/>
        <edgeData id="1040877495" speed="1.93"/>
        <edgeData id="22927462" speed="1.57"/>
        <edgeData id="492148703#0" speed="0.77"/>
        <edgeData id="492148704#1" speed="1.22"/>
        <edgeData id="480112482#0" speed="1.62"/>
        <edgeData id="125527383" speed="0.84"/>
        <edgeData id="-381477004" speed="1.10"/>
        <edgeData id="453367786#1" speed="2.04"/>
        <edgeData id="496986803#0" speed="1.62"/>
        <edgeData id="-273019810" speed="1.41"/>
        <edgeData id="708353352#1" speed="0.81"/>
        <edgeData id="708353352#0" speed="1.04"/>
        <edgeData id="95181774" speed="0.86"/>
        <edgeData id="451905565" speed="1.85"/>
        <edgeData id="-5670087" speed="2.31"/>
        <edgeData id="195743343#0" speed="1.23"/>
        <edgeData id="420499932#1" speed="1.04"/>
        <edgeData id="-420904658" speed="1.41"/>
        <edgeData id="989793295" speed="1.09"/>
        <edgeData id="733667933" speed="1.77"/>
        <edgeData id="46349393" speed="1.20"/>
        <edgeData id="481962896" speed="0.66"/>
        <edgeData id="-46349386#0" speed="0.62"/>
        <edgeData id="1160297420" speed="1.70"/>
        <edgeData id="46171876" speed="0.79"/>
        <edgeData id="420598407" speed="1.14"/>
        <edgeData id="-384178812" speed="1.35"/>
        <edgeData id="963551553#0" speed="0.54"/>
        <edgeData id="-467222856" speed="0.46"/>
        <edgeData id="1036714799" speed="0.71"/>
        <edgeData id="5672138#0" speed="1.50"/>
        <edgeData id="-5672138#1" speed="1.23"/>
        <edgeData id="910468313" speed="1.49"/>
        <edgeData id="420903239" speed="1.49"/>
        <edgeData id="36801165" speed="1.05"/>
        <edgeData id="696491645" speed="3.31"/>
        <edgeData id="981500819" speed="0.73"/>
        <edgeData id="-1004369132" speed="0.95"/>
        <edgeData id="-804521765" speed="1.58"/>
        <edgeData id="804521765" speed="1.34"/>
        <edgeData id="799825253" speed="2.16"/>
        <edgeData id="19725512" speed="0.46"/>
        <edgeData id="-420355081" speed="1.08"/>
        <edgeData id="420810622" speed="0.74"/>
        <edgeData id="420358898#0" speed="0.93"/>
        <edgeData id="420358898#1" speed="2.74"/>
        <edgeData id="420358896" speed="1.64"/>
        <edgeData id="5673093#1" speed="1.94"/>
        <edgeData id="420358897" speed="1.12"/>
        <edgeData id="420526338#1" speed="1.58"/>
        <edgeData id="68668558" speed="2.12"/>
        <edgeData id="439933928" speed="1.49"/>
        <edgeData id="196117075#2" speed="0.85"/>
        <edgeData id="194923800#0" speed="1.16"/>
        <edgeData id="194923800#1" speed="0.69"/>
        <edgeData id="127693200#1" speed="1.08"/>
        <edgeData id="22914179" speed="0.96"/>
        <edgeData id="46490540" speed="1.62"/>
        <edgeData id="611258688" speed="1.54"/>
        <edgeData id="5670932" speed="1.27"/>
        <edgeData id="539024460" speed="1.14"/>
        <edgeData id="1051858090" speed="2.20"/>
        <edgeData id="-991205021#1" speed="2.31"/>
        <edgeData id="5671354" speed="0.81"/>
        <edgeData id="420810621" speed="0.89"/>
        <edgeData id="991205021#1" speed="1.66"/>
        <edgeData id="-412117872" speed="1.30"/>
        <edgeData id="847931436#4" speed="1.39"/>
        <edgeData id="847932924#2" speed="0.69"/>
        <edgeData id="5670594#2" speed="1.64"/>
        <edgeData id="991939499" speed="2.30"/>
        <edgeData id="194926840" speed="0.99"/>
        <edgeData id="144158892" speed="0.77"/>
        <edgeData id="34625463#0" speed="1.23"/>
        <edgeData id="34625463#1" speed="1.47"/>
        <edgeData id="46608946#4" speed="1.00"/>
        <edgeData id="474635898" speed="1.08"/>
        <edgeData id="-420772653" speed="1.08"/>
        <edgeData id="195743226" speed="1.35"/>
        <edgeData id="439842831#0" speed="1.20"/>
        <edgeData id="847931435#0" speed="1.35"/>
        <edgeData id="5670092#6" speed="1.04"/>
        <edgeData id="188559800#1" speed="1.12"/>
        <edgeData id="675967321" speed="1.47"/>
        <edgeData id="420629945" speed="2.78"/>
        <edgeData id="421830414" speed="1.06"/>
        <edgeData id="1316295713#1" speed="1.20"/>
        <edgeData id="458166896#1" speed="1.71"/>
        <edgeData id="118400729" speed="1.31"/>
        <edgeData id="-167922076" speed="1.04"/>
        <edgeData id="167922070" speed="1.62"/>
        <edgeData id="803047266" speed="2.47"/>
        <edgeData id="569345546" speed="1.70"/>
        <edgeData id="1049920716" speed="0.96"/>
        <edgeData id="1049920717" speed="1.50"/>
        <edgeData id="569345547" speed="1.20"/>
        <edgeData id="500717399" speed="0.69"/>
        <edgeData id="1135620538" speed="0.68"/>
        <edgeData id="1135620537" speed="2.16"/>
        <edgeData id="464543615" speed="2.66"/>
        <edgeData id="1051750426" speed="1.04"/>
        <edgeData id="1051750427" speed="1.12"/>
        <edgeData id="384649121#0" speed="1.20"/>
        <edgeData id="458166897#5" speed="2.08"/>
        <edgeData id="22927287#0" speed="1.54"/>
        <edgeData id="439933945" speed="1.54"/>
        <edgeData id="195745915" speed="2.31"/>
        <edgeData id="46334599#2" speed="1.43"/>
        <edgeData id="354393808" speed="0.89"/>
        <edgeData id="-420598407" speed="1.10"/>
        <edgeData id="22927287#1" speed="1.39"/>
        <edgeData id="1015939517#1" speed="1.93"/>
        <edgeData id="-978675658" speed="1.85"/>
        <edgeData id="46139036" speed="3.09"/>
        <edgeData id="60428207#1" speed="0.96"/>
        <edgeData id="-60419794" speed="0.93"/>
        <edgeData id="1211608942" speed="0.95"/>
        <edgeData id="46334595" speed="1.14"/>
        <edgeData id="942444177" speed="1.12"/>
        <edgeData id="-420872204" speed="1.66"/>
        <edgeData id="420872204" speed="1.43"/>
        <edgeData id="46116314" speed="1.44"/>
        <edgeData id="5671743" speed="1.57"/>
        <edgeData id="125525171" speed="0.39"/>
        <edgeData id="834238144" speed="0.85"/>
        <edgeData id="849942510" speed="1.23"/>
        <edgeData id="1343029767" speed="0.96"/>
        <edgeData id="-525698215" speed="1.08"/>
        <edgeData id="-420904618" speed="1.97"/>
        <edgeData id="1372100664#2" speed="1.54"/>
        <edgeData id="1372100664#3" speed="0.93"/>
        <edgeData id="46817001" speed="1.21"/>
        <edgeData id="46863502#0" speed="1.31"/>
        <edgeData id="1285723598" speed="1.27"/>
        <edgeData id="-195743555" speed="1.20"/>
        <edgeData id="611258687" speed="1.70"/>
        <edgeData id="46609036" speed="1.58"/>
        <edgeData id="95181768#2" speed="1.09"/>
        <edgeData id="95181768#3" speed="0.95"/>
        <edgeData id="95181768#4" speed="0.93"/>
        <edgeData id="1372100664#4" speed="1.08"/>
        <edgeData id="5673523" speed="3.09"/>
        <edgeData id="194923795#1" speed="1.62"/>
        <edgeData id="194923795#2" speed="1.62"/>
        <edgeData id="420509471#0" speed="0.84"/>
        <edgeData id="600848479" speed="1.59"/>
        <edgeData id="350726030#0" speed="1.12"/>
        <edgeData id="350726030#1" speed="1.31"/>
        <edgeData id="-524816751" speed="1.08"/>
        <edgeData id="1037772009" speed="1.43"/>
        <edgeData id="464683341#0" speed="1.00"/>
        <edgeData id="464683341#1" speed="0.77"/>
        <edgeData id="464683341#3" speed="1.23"/>
        <edgeData id="464683339#0" speed="1.43"/>
        <edgeData id="196117051#0" speed="1.27"/>
        <edgeData id="464683339#3" speed="1.04"/>
        <edgeData id="464683321" speed="0.93"/>
        <edgeData id="464683329#0" speed="1.31"/>
        <edgeData id="904809348" speed="0.62"/>
        <edgeData id="226041007#1" speed="1.36"/>
        <edgeData id="458180187#1" speed="0.89"/>
        <edgeData id="226041006#1" speed="0.75"/>
        <edgeData id="5670719#1" speed="1.62"/>
        <edgeData id="589494595" speed="0.54"/>
        <edgeData id="460585329" speed="0.85"/>
        <edgeData id="227074795" speed="1.89"/>
        <edgeData id="157019568" speed="1.16"/>
        <edgeData id="5681375#1" speed="0.83"/>
        <edgeData id="610568363" speed="0.85"/>
        <edgeData id="198924565" speed="1.10"/>
        <edgeData id="5677637" speed="1.31"/>
        <edgeData id="464515259#0" speed="1.14"/>
        <edgeData id="492489884" speed="0.58"/>
        <edgeData id="195743190" speed="0.83"/>
        <edgeData id="226041020" speed="1.31"/>
        <edgeData id="1022184080" speed="1.00"/>
        <edgeData id="1022184081" speed="0.62"/>
        <edgeData id="1022184083" speed="0.85"/>
        <edgeData id="968394451" speed="0.85"/>
        <edgeData id="986615541" speed="0.54"/>
        <edgeData id="483704512#1" speed="0.58"/>
        <edgeData id="396444294#3" speed="1.23"/>
        <edgeData id="846127259#1" speed="1.62"/>
        <edgeData id="1027181003" speed="1.62"/>
        <edgeData id="464515259#1" speed="1.06"/>
        <edgeData id="767683114" speed="0.85"/>
        <edgeData id="420509471#2" speed="1.54"/>
        <edgeData id="195743208#0" speed="1.16"/>
        <edgeData id="458106345#0" speed="3.09"/>
        <edgeData id="458106345#1" speed="1.01"/>
        <edgeData id="396444295#1" speed="1.16"/>
        <edgeData id="5671291#0" speed="0.46"/>
        <edgeData id="5671291#1" speed="0.77"/>
        <edgeData id="256902825" speed="1.08"/>
        <edgeData id="5670522" speed="1.66"/>
        <edgeData id="196116979" speed="1.18"/>
        <edgeData id="492489893" speed="0.66"/>
        <edgeData id="460606347" speed="1.31"/>
        <edgeData id="415849235" speed="1.77"/>
        <edgeData id="5670899" speed="1.23"/>
        <edgeData id="884400297" speed="1.29"/>
        <edgeData id="539024459#0" speed="0.96"/>
        <edgeData id="628093103" speed="2.39"/>
        <edgeData id="412117872" speed="0.96"/>
        <edgeData id="5672992" speed="0.62"/>
        <edgeData id="420514149#2" speed="0.93"/>
        <edgeData id="5672168#0" speed="1.08"/>
        <edgeData id="46332301#3" speed="1.85"/>
        <edgeData id="46171883" speed="1.87"/>
        <edgeData id="1022549185#0" speed="1.47"/>
        <edgeData id="5671314#0" speed="1.16"/>
        <edgeData id="5670633#2" speed="0.96"/>
        <edgeData id="348488665" speed="2.24"/>
        <edgeData id="845994219#1" speed="1.35"/>
        <edgeData id="194923810#0" speed="0.81"/>
        <edgeData id="194923810#1" speed="0.69"/>
        <edgeData id="1015939516" speed="1.66"/>
        <edgeData id="194923810#2" speed="1.54"/>
        <edgeData id="1088327050#0" speed="3.20"/>
        <edgeData id="420356168" speed="1.00"/>
        <edgeData id="46469727" speed="0.77"/>
        <edgeData id="458166897#0" speed="0.58"/>
        <edgeData id="420356171#1" speed="1.20"/>
        <edgeData id="458166897#1" speed="1.08"/>
        <edgeData id="458166897#2" speed="1.04"/>
        <edgeData id="458166897#3" speed="0.71"/>
        <edgeData id="458166897#4" speed="0.46"/>
        <edgeData id="458166897#6" speed="2.16"/>
        <edgeData id="46522003" speed="1.27"/>
        <edgeData id="658583340#0" speed="0.96"/>
        <edgeData id="458166897#8" speed="1.06"/>
        <edgeData id="458166897#9" speed="0.93"/>
        <edgeData id="458166897#10" speed="0.89"/>
        <edgeData id="46521994" speed="0.93"/>
        <edgeData id="455122830" speed="0.54"/>
        <edgeData id="710571389" speed="0.62"/>
        <edgeData id="544549058" speed="0.62"/>
        <edgeData id="-196117075#1" speed="1.12"/>
        <edgeData id="-196117075#0" speed="0.93"/>
        <edgeData id="196117075#0" speed="0.96"/>
        <edgeData id="458106348#1" speed="1.00"/>
        <edgeData id="68668516" speed="1.43"/>
        <edgeData id="582399790#0" speed="1.34"/>
        <edgeData id="27523621" speed="2.35"/>
        <edgeData id="582399790#1" speed="0.46"/>
        <edgeData id="465098295" speed="1.16"/>
        <edgeData id="992405802#1" speed="1.27"/>
        <edgeData id="5673093#3" speed="1.66"/>
        <edgeData id="1021949730" speed="2.26"/>
        <edgeData id="-630828592" speed="1.31"/>
        <edgeData id="630828592" speed="0.69"/>
        <edgeData id="438901427" speed="0.89"/>
        <edgeData id="941943233" speed="0.69"/>
        <edgeData id="556311124#4" speed="0.31"/>
        <edgeData id="630828586" speed="1.04"/>
        <edgeData id="846122853" speed="0.93"/>
        <edgeData id="788602261" speed="1.29"/>
        <edgeData id="-5671620" speed="3.13"/>
        <edgeData id="32947291" speed="0.54"/>
        <edgeData id="5671774#6" speed="2.12"/>
        <edgeData id="466956274" speed="1.00"/>
        <edgeData id="946653471" speed="0.96"/>
        <edgeData id="812936282#0" speed="1.18"/>
        <edgeData id="420809419#0" speed="0.96"/>
        <edgeData id="420809419#1" speed="1.93"/>
        <edgeData id="46201642" speed="1.08"/>
        <edgeData id="420901683" speed="1.27"/>
        <edgeData id="421852619" speed="1.22"/>
        <edgeData id="420872212#0" speed="1.14"/>
        <edgeData id="420872212#1" speed="1.47"/>
        <edgeData id="167922076" speed="1.31"/>
        <edgeData id="413045201#0" speed="1.89"/>
        <edgeData id="955237975" speed="1.70"/>
        <edgeData id="5669866#0" speed="1.35"/>
        <edgeData id="524817694" speed="1.85"/>
        <edgeData id="-989228450" speed="1.04"/>
        <edgeData id="-981500819" speed="0.58"/>
        <edgeData id="5670897" speed="0.77"/>
        <edgeData id="25199883#1" speed="1.47"/>
        <edgeData id="5672138#1" speed="1.33"/>
        <edgeData id="221687792" speed="1.70"/>
        <edgeData id="497002544" speed="1.66"/>
        <edgeData id="492148705" speed="1.70"/>
        <edgeData id="1042964169" speed="0.62"/>
        <edgeData id="467222828" speed="0.69"/>
        <edgeData id="847939166" speed="0.73"/>
        <edgeData id="847932924#0" speed="1.15"/>
        <edgeData id="884400289" speed="4.94"/>
        <edgeData id="1209567443" speed="4.94"/>
        <edgeData id="-421851200" speed="1.00"/>
        <edgeData id="169381960" speed="0.93"/>
        <edgeData id="511924053" speed="0.87"/>
        <edgeData id="670988060" speed="0.31"/>
        <edgeData id="226041029" speed="2.39"/>
        <edgeData id="384178816#1" speed="1.70"/>
        <edgeData id="542096278" speed="0.73"/>
    </interval>
</additional>
